file 14675355 1731058539                                        
version 3
run Aodv_Moblity_0mps-2-20241108-16:35:38-59773
attr configname Aodv_Moblity_0mps
attr datetime 20241108-16:35:38
attr datetimef 20241108-163538
attr experiment Aodv_Moblity_0mps
attr inifile Net1Test.ini
attr iterationvars ""
attr iterationvarsd ""
attr iterationvarsf ""
attr measurement ""
attr network Net1Test
attr processid 59773
attr repetition 2
attr replication #2
attr resultdir results
attr runnumber 2
attr seedset 2
config image-path ../../inet4.4/images
config extends "StationaryMobility, AODV"
config *.*.mobility.typename StationaryMobility
config *.*.routingApp.typename Aodv
config *.*.routingApp.helloInterval 2s
config network Net1Test
config sim-time-limit 121s
config repeat 3
config **.wlan[*].radio.typename Ieee80211ScalarRadio
config **.wlan[*].bitrate 24Mbps
config **.wlan[*].radio.transmitter.power 3dBm
config *.Destination.wlan[*].radio.displayCommunicationRange true
config *.Source.wlan[*].radio.displayCommunicationRange true
config *.radioMedium.pathLoss.typename FreeSpacePathLoss
config *.visualizer.osgVisualizer.typename IntegratedOsgVisualizer
config *.visualizer.osgVisualizer.sceneVisualizer.clearColor "\"skyblue\""
config *.visualizer.osgVisualizer.sceneVisualizer.sceneImage "\"showcases/desert\""
config *.visualizer.osgVisualizer.sceneVisualizer.sceneImageSize 6000m
config *.visualizer.osgVisualizer.sceneVisualizer.axisLength 6200m
config *.visualizer.osgVisualizer.sceneVisualizer.sceneMinX -1000m
config *.visualizer.osgVisualizer.sceneVisualizer.sceneMinY -1000m
config *.visualizer.osgVisualizer.sceneVisualizer.sceneMinZ 100m
config *.visualizer.osgVisualizer.sceneVisualizer.sceneMaxX 6100m
config *.visualizer.osgVisualizer.sceneVisualizer.sceneMaxY 6100m
config *.visualizer.osgVisualizer.sceneVisualizer.sceneMaxZ 1000m
config *.visualizer.*.networkRouteVisualizer.displayRoutes true
config *.visualizer.*.networkRouteVisualizer[0].packetFilter "\"UDP*\""
config *.visualizer.*.infoVisualizer.modules "\"*.*.app[0]\""
config *.visualizer.*.infoVisualizer.format "\"%t\""
config *.visualizer.*.infoVisualizer.placementHint "\"topCenter\""
config *.Source.numApps 1
config *.Source.app[0].typename UdpBasicApp
config *.Source.app[0].destAddresses "\"Destination\""
config *.Source.app[0].destPort 1000
config *.Source.app[0].sendInterval normal(250ms,10us)
config *.Source.app[0].startTime 2s
config *.Source.app[0].messageLength 1000Byte
config *.Source.app[0].packetName "\"UDPdata\""
config *.Destination.numApps 1
config *.Destination.app[0].typename UdpSink
config *.Destination.app[0].localPort 1000
config *.*.mobility.constraintAreaMinX 0m
config *.*.mobility.constraintAreaMinY 0m
config *.*.mobility.constraintAreaMinZ 0m
config *.*.mobility.constraintAreaMaxX 1000m
config *.*.mobility.constraintAreaMaxY 7500m
config *.*.mobility.constraintAreaMaxZ 0m

vector 0 Net1Test.Source.wlan[0].mac.dcf frameSequenceActive:vector ETV
attr autoWarmupFilter false
attr interpolationmode sample-hold
attr recordingmode vector
attr source warmup(count(frameSequenceStarted)-count(frameSequenceFinished))
attr title "frame sequence active"
vector 1 Net1Test.Source.wlan[0].mac.dcf.channelAccess.inProgressFrames queueLength:vector ETV
attr autoWarmupFilter false
attr interpolationmode sample-hold
attr recordingmode vector
attr source "warmup(count(packetEnqueued) - count(packetDequeued))"
attr title "queue length"
vector 2 Net1Test.Source.wlan[0].mac.dcf.channelAccess.contention backoffActive:vector ETV
attr autoWarmupFilter false
attr interpolationmode sample-hold
attr recordingmode vector
attr source warmup(count(backoffStarted)-count(backoffStopped))
attr title "backoff active"
vector 3 Net1Test.Source.udp passedUpPk:vector(count) ETV
attr interpolationmode none
attr recordingmode vector(count)
attr source packetSentToUpper
attr title "packets passed up, count"
vector 4 Net1Test.Source.udp droppedPkWrongPort:vector(count) ETV
attr interpolationmode none
attr recordingmode vector(count)
attr source packetDropReasonIsNoPortFound(packetDropped)
attr title "packets dropped (wrong port), count"
vector 5 Net1Test.Source.udp droppedPkBadChecksum:vector(count) ETV
attr interpolationmode none
attr recordingmode vector(count)
attr source packetDropReasonIsIncorrectlyReceived(packetDropped)
attr title "packets dropped (checksum error), count"
vector 6 Net1Test.Destination.wlan[0].mac.dcf frameSequenceActive:vector ETV
attr autoWarmupFilter false
attr interpolationmode sample-hold
attr recordingmode vector
attr source warmup(count(frameSequenceStarted)-count(frameSequenceFinished))
attr title "frame sequence active"
vector 7 Net1Test.Destination.wlan[0].mac.dcf.channelAccess.inProgressFrames queueLength:vector ETV
attr autoWarmupFilter false
attr interpolationmode sample-hold
attr recordingmode vector
attr source "warmup(count(packetEnqueued) - count(packetDequeued))"
attr title "queue length"
vector 8 Net1Test.Destination.wlan[0].mac.dcf.channelAccess.contention backoffActive:vector ETV
attr autoWarmupFilter false
attr interpolationmode sample-hold
attr recordingmode vector
attr source warmup(count(backoffStarted)-count(backoffStopped))
attr title "backoff active"
vector 9 Net1Test.Destination.udp passedUpPk:vector(count) ETV
attr interpolationmode none
attr recordingmode vector(count)
attr source packetSentToUpper
attr title "packets passed up, count"
vector 10 Net1Test.Destination.udp droppedPkWrongPort:vector(count) ETV
attr interpolationmode none
attr recordingmode vector(count)
attr source packetDropReasonIsNoPortFound(packetDropped)
attr title "packets dropped (wrong port), count"
vector 11 Net1Test.Destination.udp droppedPkBadChecksum:vector(count) ETV
attr interpolationmode none
attr recordingmode vector(count)
attr source packetDropReasonIsIncorrectlyReceived(packetDropped)
attr title "packets dropped (checksum error), count"
vector 12 Net1Test.U2.wlan[0].mac.dcf frameSequenceActive:vector ETV
attr autoWarmupFilter false
attr interpolationmode sample-hold
attr recordingmode vector
attr source warmup(count(frameSequenceStarted)-count(frameSequenceFinished))
attr title "frame sequence active"
vector 13 Net1Test.U2.wlan[0].mac.dcf.channelAccess.inProgressFrames queueLength:vector ETV
attr autoWarmupFilter false
attr interpolationmode sample-hold
attr recordingmode vector
attr source "warmup(count(packetEnqueued) - count(packetDequeued))"
attr title "queue length"
vector 14 Net1Test.U2.wlan[0].mac.dcf.channelAccess.contention backoffActive:vector ETV
attr autoWarmupFilter false
attr interpolationmode sample-hold
attr recordingmode vector
attr source warmup(count(backoffStarted)-count(backoffStopped))
attr title "backoff active"
vector 15 Net1Test.U2.udp passedUpPk:vector(count) ETV
attr interpolationmode none
attr recordingmode vector(count)
attr source packetSentToUpper
attr title "packets passed up, count"
vector 16 Net1Test.U2.udp droppedPkWrongPort:vector(count) ETV
attr interpolationmode none
attr recordingmode vector(count)
attr source packetDropReasonIsNoPortFound(packetDropped)
attr title "packets dropped (wrong port), count"
vector 17 Net1Test.U2.udp droppedPkBadChecksum:vector(count) ETV
attr interpolationmode none
attr recordingmode vector(count)
attr source packetDropReasonIsIncorrectlyReceived(packetDropped)
attr title "packets dropped (checksum error), count"
vector 18 Net1Test.U3.wlan[0].mac.dcf frameSequenceActive:vector ETV
attr autoWarmupFilter false
attr interpolationmode sample-hold
attr recordingmode vector
attr source warmup(count(frameSequenceStarted)-count(frameSequenceFinished))
attr title "frame sequence active"
vector 19 Net1Test.U3.wlan[0].mac.dcf.channelAccess.inProgressFrames queueLength:vector ETV
attr autoWarmupFilter false
attr interpolationmode sample-hold
attr recordingmode vector
attr source "warmup(count(packetEnqueued) - count(packetDequeued))"
attr title "queue length"
vector 20 Net1Test.U3.wlan[0].mac.dcf.channelAccess.contention backoffActive:vector ETV
attr autoWarmupFilter false
attr interpolationmode sample-hold
attr recordingmode vector
attr source warmup(count(backoffStarted)-count(backoffStopped))
attr title "backoff active"
vector 21 Net1Test.U3.udp passedUpPk:vector(count) ETV
attr interpolationmode none
attr recordingmode vector(count)
attr source packetSentToUpper
attr title "packets passed up, count"
vector 22 Net1Test.U3.udp droppedPkWrongPort:vector(count) ETV
attr interpolationmode none
attr recordingmode vector(count)
attr source packetDropReasonIsNoPortFound(packetDropped)
attr title "packets dropped (wrong port), count"
vector 23 Net1Test.U3.udp droppedPkBadChecksum:vector(count) ETV
attr interpolationmode none
attr recordingmode vector(count)
attr source packetDropReasonIsIncorrectlyReceived(packetDropped)
attr title "packets dropped (checksum error), count"
vector 24 Net1Test.U4.wlan[0].mac.dcf frameSequenceActive:vector ETV
attr autoWarmupFilter false
attr interpolationmode sample-hold
attr recordingmode vector
attr source warmup(count(frameSequenceStarted)-count(frameSequenceFinished))
attr title "frame sequence active"
vector 25 Net1Test.U4.wlan[0].mac.dcf.channelAccess.inProgressFrames queueLength:vector ETV
attr autoWarmupFilter false
attr interpolationmode sample-hold
attr recordingmode vector
attr source "warmup(count(packetEnqueued) - count(packetDequeued))"
attr title "queue length"
vector 26 Net1Test.U4.wlan[0].mac.dcf.channelAccess.contention backoffActive:vector ETV
attr autoWarmupFilter false
attr interpolationmode sample-hold
attr recordingmode vector
attr source warmup(count(backoffStarted)-count(backoffStopped))
attr title "backoff active"
vector 27 Net1Test.U4.udp passedUpPk:vector(count) ETV
attr interpolationmode none
attr recordingmode vector(count)
attr source packetSentToUpper
attr title "packets passed up, count"
vector 28 Net1Test.U4.udp droppedPkWrongPort:vector(count) ETV
attr interpolationmode none
attr recordingmode vector(count)
attr source packetDropReasonIsNoPortFound(packetDropped)
attr title "packets dropped (wrong port), count"
vector 29 Net1Test.U4.udp droppedPkBadChecksum:vector(count) ETV
attr interpolationmode none
attr recordingmode vector(count)
attr source packetDropReasonIsIncorrectlyReceived(packetDropped)
attr title "packets dropped (checksum error), count"
vector 30 Net1Test.U5.wlan[0].mac.dcf frameSequenceActive:vector ETV
attr autoWarmupFilter false
attr interpolationmode sample-hold
attr recordingmode vector
attr source warmup(count(frameSequenceStarted)-count(frameSequenceFinished))
attr title "frame sequence active"
vector 31 Net1Test.U5.wlan[0].mac.dcf.channelAccess.inProgressFrames queueLength:vector ETV
attr autoWarmupFilter false
attr interpolationmode sample-hold
attr recordingmode vector
attr source "warmup(count(packetEnqueued) - count(packetDequeued))"
attr title "queue length"
vector 32 Net1Test.U5.wlan[0].mac.dcf.channelAccess.contention backoffActive:vector ETV
attr autoWarmupFilter false
attr interpolationmode sample-hold
attr recordingmode vector
attr source warmup(count(backoffStarted)-count(backoffStopped))
attr title "backoff active"
vector 33 Net1Test.U5.udp passedUpPk:vector(count) ETV
attr interpolationmode none
attr recordingmode vector(count)
attr source packetSentToUpper
attr title "packets passed up, count"
vector 34 Net1Test.U5.udp droppedPkWrongPort:vector(count) ETV
attr interpolationmode none
attr recordingmode vector(count)
attr source packetDropReasonIsNoPortFound(packetDropped)
attr title "packets dropped (wrong port), count"
vector 35 Net1Test.U5.udp droppedPkBadChecksum:vector(count) ETV
attr interpolationmode none
attr recordingmode vector(count)
attr source packetDropReasonIsIncorrectlyReceived(packetDropped)
attr title "packets dropped (checksum error), count"
vector 36 Net1Test.U6.wlan[0].mac.dcf frameSequenceActive:vector ETV
attr autoWarmupFilter false
attr interpolationmode sample-hold
attr recordingmode vector
attr source warmup(count(frameSequenceStarted)-count(frameSequenceFinished))
attr title "frame sequence active"
vector 37 Net1Test.U6.wlan[0].mac.dcf.channelAccess.inProgressFrames queueLength:vector ETV
attr autoWarmupFilter false
attr interpolationmode sample-hold
attr recordingmode vector
attr source "warmup(count(packetEnqueued) - count(packetDequeued))"
attr title "queue length"
vector 38 Net1Test.U6.wlan[0].mac.dcf.channelAccess.contention backoffActive:vector ETV
attr autoWarmupFilter false
attr interpolationmode sample-hold
attr recordingmode vector
attr source warmup(count(backoffStarted)-count(backoffStopped))
attr title "backoff active"
vector 39 Net1Test.U6.udp passedUpPk:vector(count) ETV
attr interpolationmode none
attr recordingmode vector(count)
attr source packetSentToUpper
attr title "packets passed up, count"
vector 40 Net1Test.U6.udp droppedPkWrongPort:vector(count) ETV
attr interpolationmode none
attr recordingmode vector(count)
attr source packetDropReasonIsNoPortFound(packetDropped)
attr title "packets dropped (wrong port), count"
vector 41 Net1Test.U6.udp droppedPkBadChecksum:vector(count) ETV
attr interpolationmode none
attr recordingmode vector(count)
attr source packetDropReasonIsIncorrectlyReceived(packetDropped)
attr title "packets dropped (checksum error), count"
vector 42 Net1Test.U7.wlan[0].mac.dcf frameSequenceActive:vector ETV
attr autoWarmupFilter false
attr interpolationmode sample-hold
attr recordingmode vector
attr source warmup(count(frameSequenceStarted)-count(frameSequenceFinished))
attr title "frame sequence active"
vector 43 Net1Test.U7.wlan[0].mac.dcf.channelAccess.inProgressFrames queueLength:vector ETV
attr autoWarmupFilter false
attr interpolationmode sample-hold
attr recordingmode vector
attr source "warmup(count(packetEnqueued) - count(packetDequeued))"
attr title "queue length"
vector 44 Net1Test.U7.wlan[0].mac.dcf.channelAccess.contention backoffActive:vector ETV
attr autoWarmupFilter false
attr interpolationmode sample-hold
attr recordingmode vector
attr source warmup(count(backoffStarted)-count(backoffStopped))
attr title "backoff active"
vector 45 Net1Test.U7.udp passedUpPk:vector(count) ETV
attr interpolationmode none
attr recordingmode vector(count)
attr source packetSentToUpper
attr title "packets passed up, count"
vector 46 Net1Test.U7.udp droppedPkWrongPort:vector(count) ETV
attr interpolationmode none
attr recordingmode vector(count)
attr source packetDropReasonIsNoPortFound(packetDropped)
attr title "packets dropped (wrong port), count"
vector 47 Net1Test.U7.udp droppedPkBadChecksum:vector(count) ETV
attr interpolationmode none
attr recordingmode vector(count)
attr source packetDropReasonIsIncorrectlyReceived(packetDropped)
attr title "packets dropped (checksum error), count"
vector 48 Net1Test.U8.wlan[0].mac.dcf frameSequenceActive:vector ETV
attr autoWarmupFilter false
attr interpolationmode sample-hold
attr recordingmode vector
attr source warmup(count(frameSequenceStarted)-count(frameSequenceFinished))
attr title "frame sequence active"
vector 49 Net1Test.U8.wlan[0].mac.dcf.channelAccess.inProgressFrames queueLength:vector ETV
attr autoWarmupFilter false
attr interpolationmode sample-hold
attr recordingmode vector
attr source "warmup(count(packetEnqueued) - count(packetDequeued))"
attr title "queue length"
vector 50 Net1Test.U8.wlan[0].mac.dcf.channelAccess.contention backoffActive:vector ETV
attr autoWarmupFilter false
attr interpolationmode sample-hold
attr recordingmode vector
attr source warmup(count(backoffStarted)-count(backoffStopped))
attr title "backoff active"
vector 51 Net1Test.U8.udp passedUpPk:vector(count) ETV
attr interpolationmode none
attr recordingmode vector(count)
attr source packetSentToUpper
attr title "packets passed up, count"
vector 52 Net1Test.U8.udp droppedPkWrongPort:vector(count) ETV
attr interpolationmode none
attr recordingmode vector(count)
attr source packetDropReasonIsNoPortFound(packetDropped)
attr title "packets dropped (wrong port), count"
vector 53 Net1Test.U8.udp droppedPkBadChecksum:vector(count) ETV
attr interpolationmode none
attr recordingmode vector(count)
attr source packetDropReasonIsIncorrectlyReceived(packetDropped)
attr title "packets dropped (checksum error), count"
vector 54 Net1Test.U9.wlan[0].mac.dcf frameSequenceActive:vector ETV
attr autoWarmupFilter false
attr interpolationmode sample-hold
attr recordingmode vector
attr source warmup(count(frameSequenceStarted)-count(frameSequenceFinished))
attr title "frame sequence active"
vector 55 Net1Test.U9.wlan[0].mac.dcf.channelAccess.inProgressFrames queueLength:vector ETV
attr autoWarmupFilter false
attr interpolationmode sample-hold
attr recordingmode vector
attr source "warmup(count(packetEnqueued) - count(packetDequeued))"
attr title "queue length"
vector 56 Net1Test.U9.wlan[0].mac.dcf.channelAccess.contention backoffActive:vector ETV
attr autoWarmupFilter false
attr interpolationmode sample-hold
attr recordingmode vector
attr source warmup(count(backoffStarted)-count(backoffStopped))
attr title "backoff active"
vector 57 Net1Test.U9.udp passedUpPk:vector(count) ETV
attr interpolationmode none
attr recordingmode vector(count)
attr source packetSentToUpper
attr title "packets passed up, count"
vector 58 Net1Test.U9.udp droppedPkWrongPort:vector(count) ETV
attr interpolationmode none
attr recordingmode vector(count)
attr source packetDropReasonIsNoPortFound(packetDropped)
attr title "packets dropped (wrong port), count"
vector 59 Net1Test.U9.udp droppedPkBadChecksum:vector(count) ETV
attr interpolationmode none
attr recordingmode vector(count)
attr source packetDropReasonIsIncorrectlyReceived(packetDropped)
attr title "packets dropped (checksum error), count"
vector 60 Net1Test.U10.wlan[0].mac.dcf frameSequenceActive:vector ETV
attr autoWarmupFilter false
attr interpolationmode sample-hold
attr recordingmode vector
attr source warmup(count(frameSequenceStarted)-count(frameSequenceFinished))
attr title "frame sequence active"
vector 61 Net1Test.U10.wlan[0].mac.dcf.channelAccess.inProgressFrames queueLength:vector ETV
attr autoWarmupFilter false
attr interpolationmode sample-hold
attr recordingmode vector
attr source "warmup(count(packetEnqueued) - count(packetDequeued))"
attr title "queue length"
vector 62 Net1Test.U10.wlan[0].mac.dcf.channelAccess.contention backoffActive:vector ETV
attr autoWarmupFilter false
attr interpolationmode sample-hold
attr recordingmode vector
attr source warmup(count(backoffStarted)-count(backoffStopped))
attr title "backoff active"
vector 63 Net1Test.U10.udp passedUpPk:vector(count) ETV
attr interpolationmode none
attr recordingmode vector(count)
attr source packetSentToUpper
attr title "packets passed up, count"
vector 64 Net1Test.U10.udp droppedPkWrongPort:vector(count) ETV
attr interpolationmode none
attr recordingmode vector(count)
attr source packetDropReasonIsNoPortFound(packetDropped)
attr title "packets dropped (wrong port), count"
vector 65 Net1Test.U10.udp droppedPkBadChecksum:vector(count) ETV
attr interpolationmode none
attr recordingmode vector(count)
attr source packetDropReasonIsIncorrectlyReceived(packetDropped)
attr title "packets dropped (checksum error), count"
vector 66 Net1Test.U11.wlan[0].mac.dcf frameSequenceActive:vector ETV
attr autoWarmupFilter false
attr interpolationmode sample-hold
attr recordingmode vector
attr source warmup(count(frameSequenceStarted)-count(frameSequenceFinished))
attr title "frame sequence active"
vector 67 Net1Test.U11.wlan[0].mac.dcf.channelAccess.inProgressFrames queueLength:vector ETV
attr autoWarmupFilter false
attr interpolationmode sample-hold
attr recordingmode vector
attr source "warmup(count(packetEnqueued) - count(packetDequeued))"
attr title "queue length"
vector 68 Net1Test.U11.wlan[0].mac.dcf.channelAccess.contention backoffActive:vector ETV
attr autoWarmupFilter false
attr interpolationmode sample-hold
attr recordingmode vector
attr source warmup(count(backoffStarted)-count(backoffStopped))
attr title "backoff active"
vector 69 Net1Test.U11.udp passedUpPk:vector(count) ETV
attr interpolationmode none
attr recordingmode vector(count)
attr source packetSentToUpper
attr title "packets passed up, count"
vector 70 Net1Test.U11.udp droppedPkWrongPort:vector(count) ETV
attr interpolationmode none
attr recordingmode vector(count)
attr source packetDropReasonIsNoPortFound(packetDropped)
attr title "packets dropped (wrong port), count"
vector 71 Net1Test.U11.udp droppedPkBadChecksum:vector(count) ETV
attr interpolationmode none
attr recordingmode vector(count)
attr source packetDropReasonIsIncorrectlyReceived(packetDropped)
attr title "packets dropped (checksum error), count"
vector 72 Net1Test.U12.wlan[0].mac.dcf frameSequenceActive:vector ETV
attr autoWarmupFilter false
attr interpolationmode sample-hold
attr recordingmode vector
attr source warmup(count(frameSequenceStarted)-count(frameSequenceFinished))
attr title "frame sequence active"
vector 73 Net1Test.U12.wlan[0].mac.dcf.channelAccess.inProgressFrames queueLength:vector ETV
attr autoWarmupFilter false
attr interpolationmode sample-hold
attr recordingmode vector
attr source "warmup(count(packetEnqueued) - count(packetDequeued))"
attr title "queue length"
vector 74 Net1Test.U12.wlan[0].mac.dcf.channelAccess.contention backoffActive:vector ETV
attr autoWarmupFilter false
attr interpolationmode sample-hold
attr recordingmode vector
attr source warmup(count(backoffStarted)-count(backoffStopped))
attr title "backoff active"
vector 75 Net1Test.U12.udp passedUpPk:vector(count) ETV
attr interpolationmode none
attr recordingmode vector(count)
attr source packetSentToUpper
attr title "packets passed up, count"
vector 76 Net1Test.U12.udp droppedPkWrongPort:vector(count) ETV
attr interpolationmode none
attr recordingmode vector(count)
attr source packetDropReasonIsNoPortFound(packetDropped)
attr title "packets dropped (wrong port), count"
vector 77 Net1Test.U12.udp droppedPkBadChecksum:vector(count) ETV
attr interpolationmode none
attr recordingmode vector(count)
attr source packetDropReasonIsIncorrectlyReceived(packetDropped)
attr title "packets dropped (checksum error), count"
vector 78 Net1Test.U13.wlan[0].mac.dcf frameSequenceActive:vector ETV
attr autoWarmupFilter false
attr interpolationmode sample-hold
attr recordingmode vector
attr source warmup(count(frameSequenceStarted)-count(frameSequenceFinished))
attr title "frame sequence active"
vector 79 Net1Test.U13.wlan[0].mac.dcf.channelAccess.inProgressFrames queueLength:vector ETV
attr autoWarmupFilter false
attr interpolationmode sample-hold
attr recordingmode vector
attr source "warmup(count(packetEnqueued) - count(packetDequeued))"
attr title "queue length"
vector 80 Net1Test.U13.wlan[0].mac.dcf.channelAccess.contention backoffActive:vector ETV
attr autoWarmupFilter false
attr interpolationmode sample-hold
attr recordingmode vector
attr source warmup(count(backoffStarted)-count(backoffStopped))
attr title "backoff active"
vector 81 Net1Test.U13.udp passedUpPk:vector(count) ETV
attr interpolationmode none
attr recordingmode vector(count)
attr source packetSentToUpper
attr title "packets passed up, count"
vector 82 Net1Test.U13.udp droppedPkWrongPort:vector(count) ETV
attr interpolationmode none
attr recordingmode vector(count)
attr source packetDropReasonIsNoPortFound(packetDropped)
attr title "packets dropped (wrong port), count"
vector 83 Net1Test.U13.udp droppedPkBadChecksum:vector(count) ETV
attr interpolationmode none
attr recordingmode vector(count)
attr source packetDropReasonIsIncorrectlyReceived(packetDropped)
attr title "packets dropped (checksum error), count"
vector 84 Net1Test.U14.wlan[0].mac.dcf frameSequenceActive:vector ETV
attr autoWarmupFilter false
attr interpolationmode sample-hold
attr recordingmode vector
attr source warmup(count(frameSequenceStarted)-count(frameSequenceFinished))
attr title "frame sequence active"
vector 85 Net1Test.U14.wlan[0].mac.dcf.channelAccess.inProgressFrames queueLength:vector ETV
attr autoWarmupFilter false
attr interpolationmode sample-hold
attr recordingmode vector
attr source "warmup(count(packetEnqueued) - count(packetDequeued))"
attr title "queue length"
vector 86 Net1Test.U14.wlan[0].mac.dcf.channelAccess.contention backoffActive:vector ETV
attr autoWarmupFilter false
attr interpolationmode sample-hold
attr recordingmode vector
attr source warmup(count(backoffStarted)-count(backoffStopped))
attr title "backoff active"
vector 87 Net1Test.U14.udp passedUpPk:vector(count) ETV
attr interpolationmode none
attr recordingmode vector(count)
attr source packetSentToUpper
attr title "packets passed up, count"
vector 88 Net1Test.U14.udp droppedPkWrongPort:vector(count) ETV
attr interpolationmode none
attr recordingmode vector(count)
attr source packetDropReasonIsNoPortFound(packetDropped)
attr title "packets dropped (wrong port), count"
vector 89 Net1Test.U14.udp droppedPkBadChecksum:vector(count) ETV
attr interpolationmode none
attr recordingmode vector(count)
attr source packetDropReasonIsIncorrectlyReceived(packetDropped)
attr title "packets dropped (checksum error), count"
vector 90 Net1Test.U15.wlan[0].mac.dcf frameSequenceActive:vector ETV
attr autoWarmupFilter false
attr interpolationmode sample-hold
attr recordingmode vector
attr source warmup(count(frameSequenceStarted)-count(frameSequenceFinished))
attr title "frame sequence active"
vector 91 Net1Test.U15.wlan[0].mac.dcf.channelAccess.inProgressFrames queueLength:vector ETV
attr autoWarmupFilter false
attr interpolationmode sample-hold
attr recordingmode vector
attr source "warmup(count(packetEnqueued) - count(packetDequeued))"
attr title "queue length"
vector 92 Net1Test.U15.wlan[0].mac.dcf.channelAccess.contention backoffActive:vector ETV
attr autoWarmupFilter false
attr interpolationmode sample-hold
attr recordingmode vector
attr source warmup(count(backoffStarted)-count(backoffStopped))
attr title "backoff active"
vector 93 Net1Test.U15.udp passedUpPk:vector(count) ETV
attr interpolationmode none
attr recordingmode vector(count)
attr source packetSentToUpper
attr title "packets passed up, count"
vector 94 Net1Test.U15.udp droppedPkWrongPort:vector(count) ETV
attr interpolationmode none
attr recordingmode vector(count)
attr source packetDropReasonIsNoPortFound(packetDropped)
attr title "packets dropped (wrong port), count"
vector 95 Net1Test.U15.udp droppedPkBadChecksum:vector(count) ETV
attr interpolationmode none
attr recordingmode vector(count)
attr source packetDropReasonIsIncorrectlyReceived(packetDropped)
attr title "packets dropped (checksum error), count"
vector 96 Net1Test.U16.wlan[0].mac.dcf frameSequenceActive:vector ETV
attr autoWarmupFilter false
attr interpolationmode sample-hold
attr recordingmode vector
attr source warmup(count(frameSequenceStarted)-count(frameSequenceFinished))
attr title "frame sequence active"
vector 97 Net1Test.U16.wlan[0].mac.dcf.channelAccess.inProgressFrames queueLength:vector ETV
attr autoWarmupFilter false
attr interpolationmode sample-hold
attr recordingmode vector
attr source "warmup(count(packetEnqueued) - count(packetDequeued))"
attr title "queue length"
vector 98 Net1Test.U16.wlan[0].mac.dcf.channelAccess.contention backoffActive:vector ETV
attr autoWarmupFilter false
attr interpolationmode sample-hold
attr recordingmode vector
attr source warmup(count(backoffStarted)-count(backoffStopped))
attr title "backoff active"
vector 99 Net1Test.U16.udp passedUpPk:vector(count) ETV
attr interpolationmode none
attr recordingmode vector(count)
attr source packetSentToUpper
attr title "packets passed up, count"
vector 100 Net1Test.U16.udp droppedPkWrongPort:vector(count) ETV
attr interpolationmode none
attr recordingmode vector(count)
attr source packetDropReasonIsNoPortFound(packetDropped)
attr title "packets dropped (wrong port), count"
vector 101 Net1Test.U16.udp droppedPkBadChecksum:vector(count) ETV
attr interpolationmode none
attr recordingmode vector(count)
attr source packetDropReasonIsIncorrectlyReceived(packetDropped)
attr title "packets dropped (checksum error), count"
vector 102 Net1Test.U17.wlan[0].mac.dcf frameSequenceActive:vector ETV
attr autoWarmupFilter false
attr interpolationmode sample-hold
attr recordingmode vector
attr source warmup(count(frameSequenceStarted)-count(frameSequenceFinished))
attr title "frame sequence active"
vector 103 Net1Test.U17.wlan[0].mac.dcf.channelAccess.inProgressFrames queueLength:vector ETV
attr autoWarmupFilter false
attr interpolationmode sample-hold
attr recordingmode vector
attr source "warmup(count(packetEnqueued) - count(packetDequeued))"
attr title "queue length"
vector 104 Net1Test.U17.wlan[0].mac.dcf.channelAccess.contention backoffActive:vector ETV
attr autoWarmupFilter false
attr interpolationmode sample-hold
attr recordingmode vector
attr source warmup(count(backoffStarted)-count(backoffStopped))
attr title "backoff active"
vector 105 Net1Test.U17.udp passedUpPk:vector(count) ETV
attr interpolationmode none
attr recordingmode vector(count)
attr source packetSentToUpper
attr title "packets passed up, count"
vector 106 Net1Test.U17.udp droppedPkWrongPort:vector(count) ETV
attr interpolationmode none
attr recordingmode vector(count)
attr source packetDropReasonIsNoPortFound(packetDropped)
attr title "packets dropped (wrong port), count"
vector 107 Net1Test.U17.udp droppedPkBadChecksum:vector(count) ETV
attr interpolationmode none
attr recordingmode vector(count)
attr source packetDropReasonIsIncorrectlyReceived(packetDropped)
attr title "packets dropped (checksum error), count"
vector 108 Net1Test.U18.wlan[0].mac.dcf frameSequenceActive:vector ETV
attr autoWarmupFilter false
attr interpolationmode sample-hold
attr recordingmode vector
attr source warmup(count(frameSequenceStarted)-count(frameSequenceFinished))
attr title "frame sequence active"
vector 109 Net1Test.U18.wlan[0].mac.dcf.channelAccess.inProgressFrames queueLength:vector ETV
attr autoWarmupFilter false
attr interpolationmode sample-hold
attr recordingmode vector
attr source "warmup(count(packetEnqueued) - count(packetDequeued))"
attr title "queue length"
vector 110 Net1Test.U18.wlan[0].mac.dcf.channelAccess.contention backoffActive:vector ETV
attr autoWarmupFilter false
attr interpolationmode sample-hold
attr recordingmode vector
attr source warmup(count(backoffStarted)-count(backoffStopped))
attr title "backoff active"
vector 111 Net1Test.U18.udp passedUpPk:vector(count) ETV
attr interpolationmode none
attr recordingmode vector(count)
attr source packetSentToUpper
attr title "packets passed up, count"
vector 112 Net1Test.U18.udp droppedPkWrongPort:vector(count) ETV
attr interpolationmode none
attr recordingmode vector(count)
attr source packetDropReasonIsNoPortFound(packetDropped)
attr title "packets dropped (wrong port), count"
vector 113 Net1Test.U18.udp droppedPkBadChecksum:vector(count) ETV
attr interpolationmode none
attr recordingmode vector(count)
attr source packetDropReasonIsIncorrectlyReceived(packetDropped)
attr title "packets dropped (checksum error), count"
vector 114 Net1Test.U19.wlan[0].mac.dcf frameSequenceActive:vector ETV
attr autoWarmupFilter false
attr interpolationmode sample-hold
attr recordingmode vector
attr source warmup(count(frameSequenceStarted)-count(frameSequenceFinished))
attr title "frame sequence active"
vector 115 Net1Test.U19.wlan[0].mac.dcf.channelAccess.inProgressFrames queueLength:vector ETV
attr autoWarmupFilter false
attr interpolationmode sample-hold
attr recordingmode vector
attr source "warmup(count(packetEnqueued) - count(packetDequeued))"
attr title "queue length"
vector 116 Net1Test.U19.wlan[0].mac.dcf.channelAccess.contention backoffActive:vector ETV
attr autoWarmupFilter false
attr interpolationmode sample-hold
attr recordingmode vector
attr source warmup(count(backoffStarted)-count(backoffStopped))
attr title "backoff active"
vector 117 Net1Test.U19.udp passedUpPk:vector(count) ETV
attr interpolationmode none
attr recordingmode vector(count)
attr source packetSentToUpper
attr title "packets passed up, count"
vector 118 Net1Test.U19.udp droppedPkWrongPort:vector(count) ETV
attr interpolationmode none
attr recordingmode vector(count)
attr source packetDropReasonIsNoPortFound(packetDropped)
attr title "packets dropped (wrong port), count"
vector 119 Net1Test.U19.udp droppedPkBadChecksum:vector(count) ETV
attr interpolationmode none
attr recordingmode vector(count)
attr source packetDropReasonIsIncorrectlyReceived(packetDropped)
attr title "packets dropped (checksum error), count"
vector 120 Net1Test.U20.wlan[0].mac.dcf frameSequenceActive:vector ETV
attr autoWarmupFilter false
attr interpolationmode sample-hold
attr recordingmode vector
attr source warmup(count(frameSequenceStarted)-count(frameSequenceFinished))
attr title "frame sequence active"
vector 121 Net1Test.U20.wlan[0].mac.dcf.channelAccess.inProgressFrames queueLength:vector ETV
attr autoWarmupFilter false
attr interpolationmode sample-hold
attr recordingmode vector
attr source "warmup(count(packetEnqueued) - count(packetDequeued))"
attr title "queue length"
vector 122 Net1Test.U20.wlan[0].mac.dcf.channelAccess.contention backoffActive:vector ETV
attr autoWarmupFilter false
attr interpolationmode sample-hold
attr recordingmode vector
attr source warmup(count(backoffStarted)-count(backoffStopped))
attr title "backoff active"
vector 123 Net1Test.U20.udp passedUpPk:vector(count) ETV
attr interpolationmode none
attr recordingmode vector(count)
attr source packetSentToUpper
attr title "packets passed up, count"
vector 124 Net1Test.U20.udp droppedPkWrongPort:vector(count) ETV
attr interpolationmode none
attr recordingmode vector(count)
attr source packetDropReasonIsNoPortFound(packetDropped)
attr title "packets dropped (wrong port), count"
vector 125 Net1Test.U20.udp droppedPkBadChecksum:vector(count) ETV
attr interpolationmode none
attr recordingmode vector(count)
attr source packetDropReasonIsIncorrectlyReceived(packetDropped)
attr title "packets dropped (checksum error), count"
vector 126 Net1Test.U21.wlan[0].mac.dcf frameSequenceActive:vector ETV
attr autoWarmupFilter false
attr interpolationmode sample-hold
attr recordingmode vector
attr source warmup(count(frameSequenceStarted)-count(frameSequenceFinished))
attr title "frame sequence active"
vector 127 Net1Test.U21.wlan[0].mac.dcf.channelAccess.inProgressFrames queueLength:vector ETV
attr autoWarmupFilter false
attr interpolationmode sample-hold
attr recordingmode vector
attr source "warmup(count(packetEnqueued) - count(packetDequeued))"
attr title "queue length"
vector 128 Net1Test.U21.wlan[0].mac.dcf.channelAccess.contention backoffActive:vector ETV
attr autoWarmupFilter false
attr interpolationmode sample-hold
attr recordingmode vector
attr source warmup(count(backoffStarted)-count(backoffStopped))
attr title "backoff active"
vector 129 Net1Test.U21.udp passedUpPk:vector(count) ETV
attr interpolationmode none
attr recordingmode vector(count)
attr source packetSentToUpper
attr title "packets passed up, count"
vector 130 Net1Test.U21.udp droppedPkWrongPort:vector(count) ETV
attr interpolationmode none
attr recordingmode vector(count)
attr source packetDropReasonIsNoPortFound(packetDropped)
attr title "packets dropped (wrong port), count"
vector 131 Net1Test.U21.udp droppedPkBadChecksum:vector(count) ETV
attr interpolationmode none
attr recordingmode vector(count)
attr source packetDropReasonIsIncorrectlyReceived(packetDropped)
attr title "packets dropped (checksum error), count"
vector 132 Net1Test.U22.wlan[0].mac.dcf frameSequenceActive:vector ETV
attr autoWarmupFilter false
attr interpolationmode sample-hold
attr recordingmode vector
attr source warmup(count(frameSequenceStarted)-count(frameSequenceFinished))
attr title "frame sequence active"
vector 133 Net1Test.U22.wlan[0].mac.dcf.channelAccess.inProgressFrames queueLength:vector ETV
attr autoWarmupFilter false
attr interpolationmode sample-hold
attr recordingmode vector
attr source "warmup(count(packetEnqueued) - count(packetDequeued))"
attr title "queue length"
vector 134 Net1Test.U22.wlan[0].mac.dcf.channelAccess.contention backoffActive:vector ETV
attr autoWarmupFilter false
attr interpolationmode sample-hold
attr recordingmode vector
attr source warmup(count(backoffStarted)-count(backoffStopped))
attr title "backoff active"
vector 135 Net1Test.U22.udp passedUpPk:vector(count) ETV
attr interpolationmode none
attr recordingmode vector(count)
attr source packetSentToUpper
attr title "packets passed up, count"
vector 136 Net1Test.U22.udp droppedPkWrongPort:vector(count) ETV
attr interpolationmode none
attr recordingmode vector(count)
attr source packetDropReasonIsNoPortFound(packetDropped)
attr title "packets dropped (wrong port), count"
vector 137 Net1Test.U22.udp droppedPkBadChecksum:vector(count) ETV
attr interpolationmode none
attr recordingmode vector(count)
attr source packetDropReasonIsIncorrectlyReceived(packetDropped)
attr title "packets dropped (checksum error), count"
vector 138 Net1Test.U23.wlan[0].mac.dcf frameSequenceActive:vector ETV
attr autoWarmupFilter false
attr interpolationmode sample-hold
attr recordingmode vector
attr source warmup(count(frameSequenceStarted)-count(frameSequenceFinished))
attr title "frame sequence active"
vector 139 Net1Test.U23.wlan[0].mac.dcf.channelAccess.inProgressFrames queueLength:vector ETV
attr autoWarmupFilter false
attr interpolationmode sample-hold
attr recordingmode vector
attr source "warmup(count(packetEnqueued) - count(packetDequeued))"
attr title "queue length"
vector 140 Net1Test.U23.wlan[0].mac.dcf.channelAccess.contention backoffActive:vector ETV
attr autoWarmupFilter false
attr interpolationmode sample-hold
attr recordingmode vector
attr source warmup(count(backoffStarted)-count(backoffStopped))
attr title "backoff active"
vector 141 Net1Test.U23.udp passedUpPk:vector(count) ETV
attr interpolationmode none
attr recordingmode vector(count)
attr source packetSentToUpper
attr title "packets passed up, count"
vector 142 Net1Test.U23.udp droppedPkWrongPort:vector(count) ETV
attr interpolationmode none
attr recordingmode vector(count)
attr source packetDropReasonIsNoPortFound(packetDropped)
attr title "packets dropped (wrong port), count"
vector 143 Net1Test.U23.udp droppedPkBadChecksum:vector(count) ETV
attr interpolationmode none
attr recordingmode vector(count)
attr source packetDropReasonIsIncorrectlyReceived(packetDropped)
attr title "packets dropped (checksum error), count"
vector 144 Net1Test.U24.wlan[0].mac.dcf frameSequenceActive:vector ETV
attr autoWarmupFilter false
attr interpolationmode sample-hold
attr recordingmode vector
attr source warmup(count(frameSequenceStarted)-count(frameSequenceFinished))
attr title "frame sequence active"
vector 145 Net1Test.U24.wlan[0].mac.dcf.channelAccess.inProgressFrames queueLength:vector ETV
attr autoWarmupFilter false
attr interpolationmode sample-hold
attr recordingmode vector
attr source "warmup(count(packetEnqueued) - count(packetDequeued))"
attr title "queue length"
vector 146 Net1Test.U24.wlan[0].mac.dcf.channelAccess.contention backoffActive:vector ETV
attr autoWarmupFilter false
attr interpolationmode sample-hold
attr recordingmode vector
attr source warmup(count(backoffStarted)-count(backoffStopped))
attr title "backoff active"
vector 147 Net1Test.U24.udp passedUpPk:vector(count) ETV
attr interpolationmode none
attr recordingmode vector(count)
attr source packetSentToUpper
attr title "packets passed up, count"
vector 148 Net1Test.U24.udp droppedPkWrongPort:vector(count) ETV
attr interpolationmode none
attr recordingmode vector(count)
attr source packetDropReasonIsNoPortFound(packetDropped)
attr title "packets dropped (wrong port), count"
vector 149 Net1Test.U24.udp droppedPkBadChecksum:vector(count) ETV
attr interpolationmode none
attr recordingmode vector(count)
attr source packetDropReasonIsIncorrectlyReceived(packetDropped)
attr title "packets dropped (checksum error), count"
vector 150 Net1Test.U25.wlan[0].mac.dcf frameSequenceActive:vector ETV
attr autoWarmupFilter false
attr interpolationmode sample-hold
attr recordingmode vector
attr source warmup(count(frameSequenceStarted)-count(frameSequenceFinished))
attr title "frame sequence active"
vector 151 Net1Test.U25.wlan[0].mac.dcf.channelAccess.inProgressFrames queueLength:vector ETV
attr autoWarmupFilter false
attr interpolationmode sample-hold
attr recordingmode vector
attr source "warmup(count(packetEnqueued) - count(packetDequeued))"
attr title "queue length"
vector 152 Net1Test.U25.wlan[0].mac.dcf.channelAccess.contention backoffActive:vector ETV
attr autoWarmupFilter false
attr interpolationmode sample-hold
attr recordingmode vector
attr source warmup(count(backoffStarted)-count(backoffStopped))
attr title "backoff active"
vector 153 Net1Test.U25.udp passedUpPk:vector(count) ETV
attr interpolationmode none
attr recordingmode vector(count)
attr source packetSentToUpper
attr title "packets passed up, count"
vector 154 Net1Test.U25.udp droppedPkWrongPort:vector(count) ETV
attr interpolationmode none
attr recordingmode vector(count)
attr source packetDropReasonIsNoPortFound(packetDropped)
attr title "packets dropped (wrong port), count"
vector 155 Net1Test.U25.udp droppedPkBadChecksum:vector(count) ETV
attr interpolationmode none
attr recordingmode vector(count)
attr source packetDropReasonIsIncorrectlyReceived(packetDropped)
attr title "packets dropped (checksum error), count"
vector 156 Net1Test.Source.wlan[0].radio radioMode:vector ETV
attr interpolationmode sample-hold
attr recordingmode vector
attr source radioModeChanged
attr title "Radio mode"
vector 157 Net1Test.Source.wlan[0].radio radioChannel:vector ETV
attr interpolationmode sample-hold
attr recordingmode vector
attr source radioChannelChanged
attr title "Radio channel"
vector 158 Net1Test.Destination.wlan[0].radio radioMode:vector ETV
attr interpolationmode sample-hold
attr recordingmode vector
attr source radioModeChanged
attr title "Radio mode"
vector 159 Net1Test.Destination.wlan[0].radio radioChannel:vector ETV
attr interpolationmode sample-hold
attr recordingmode vector
attr source radioChannelChanged
attr title "Radio channel"
vector 160 Net1Test.U2.wlan[0].radio radioMode:vector ETV
attr interpolationmode sample-hold
attr recordingmode vector
attr source radioModeChanged
attr title "Radio mode"
vector 161 Net1Test.U2.wlan[0].radio radioChannel:vector ETV
attr interpolationmode sample-hold
attr recordingmode vector
attr source radioChannelChanged
attr title "Radio channel"
vector 162 Net1Test.U3.wlan[0].radio radioMode:vector ETV
attr interpolationmode sample-hold
attr recordingmode vector
attr source radioModeChanged
attr title "Radio mode"
vector 163 Net1Test.U3.wlan[0].radio radioChannel:vector ETV
attr interpolationmode sample-hold
attr recordingmode vector
attr source radioChannelChanged
attr title "Radio channel"
vector 164 Net1Test.U4.wlan[0].radio radioMode:vector ETV
attr interpolationmode sample-hold
attr recordingmode vector
attr source radioModeChanged
attr title "Radio mode"
vector 165 Net1Test.U4.wlan[0].radio radioChannel:vector ETV
attr interpolationmode sample-hold
attr recordingmode vector
attr source radioChannelChanged
attr title "Radio channel"
vector 166 Net1Test.U5.wlan[0].radio radioMode:vector ETV
attr interpolationmode sample-hold
attr recordingmode vector
attr source radioModeChanged
attr title "Radio mode"
vector 167 Net1Test.U5.wlan[0].radio radioChannel:vector ETV
attr interpolationmode sample-hold
attr recordingmode vector
attr source radioChannelChanged
attr title "Radio channel"
vector 168 Net1Test.U6.wlan[0].radio radioMode:vector ETV
attr interpolationmode sample-hold
attr recordingmode vector
attr source radioModeChanged
attr title "Radio mode"
vector 169 Net1Test.U6.wlan[0].radio radioChannel:vector ETV
attr interpolationmode sample-hold
attr recordingmode vector
attr source radioChannelChanged
attr title "Radio channel"
vector 170 Net1Test.U7.wlan[0].radio radioMode:vector ETV
attr interpolationmode sample-hold
attr recordingmode vector
attr source radioModeChanged
attr title "Radio mode"
vector 171 Net1Test.U7.wlan[0].radio radioChannel:vector ETV
attr interpolationmode sample-hold
attr recordingmode vector
attr source radioChannelChanged
attr title "Radio channel"
vector 172 Net1Test.U8.wlan[0].radio radioMode:vector ETV
attr interpolationmode sample-hold
attr recordingmode vector
attr source radioModeChanged
attr title "Radio mode"
vector 173 Net1Test.U8.wlan[0].radio radioChannel:vector ETV
attr interpolationmode sample-hold
attr recordingmode vector
attr source radioChannelChanged
attr title "Radio channel"
vector 174 Net1Test.U9.wlan[0].radio radioMode:vector ETV
attr interpolationmode sample-hold
attr recordingmode vector
attr source radioModeChanged
attr title "Radio mode"
vector 175 Net1Test.U9.wlan[0].radio radioChannel:vector ETV
attr interpolationmode sample-hold
attr recordingmode vector
attr source radioChannelChanged
attr title "Radio channel"
vector 176 Net1Test.U10.wlan[0].radio radioMode:vector ETV
attr interpolationmode sample-hold
attr recordingmode vector
attr source radioModeChanged
attr title "Radio mode"
vector 177 Net1Test.U10.wlan[0].radio radioChannel:vector ETV
attr interpolationmode sample-hold
attr recordingmode vector
attr source radioChannelChanged
attr title "Radio channel"
vector 178 Net1Test.U11.wlan[0].radio radioMode:vector ETV
attr interpolationmode sample-hold
attr recordingmode vector
attr source radioModeChanged
attr title "Radio mode"
vector 179 Net1Test.U11.wlan[0].radio radioChannel:vector ETV
attr interpolationmode sample-hold
attr recordingmode vector
attr source radioChannelChanged
attr title "Radio channel"
vector 180 Net1Test.U12.wlan[0].radio radioMode:vector ETV
attr interpolationmode sample-hold
attr recordingmode vector
attr source radioModeChanged
attr title "Radio mode"
vector 181 Net1Test.U12.wlan[0].radio radioChannel:vector ETV
attr interpolationmode sample-hold
attr recordingmode vector
attr source radioChannelChanged
attr title "Radio channel"
vector 182 Net1Test.U13.wlan[0].radio radioMode:vector ETV
attr interpolationmode sample-hold
attr recordingmode vector
attr source radioModeChanged
attr title "Radio mode"
vector 183 Net1Test.U13.wlan[0].radio radioChannel:vector ETV
attr interpolationmode sample-hold
attr recordingmode vector
attr source radioChannelChanged
attr title "Radio channel"
vector 184 Net1Test.U14.wlan[0].radio radioMode:vector ETV
attr interpolationmode sample-hold
attr recordingmode vector
attr source radioModeChanged
attr title "Radio mode"
vector 185 Net1Test.U14.wlan[0].radio radioChannel:vector ETV
attr interpolationmode sample-hold
attr recordingmode vector
attr source radioChannelChanged
attr title "Radio channel"
vector 186 Net1Test.U15.wlan[0].radio radioMode:vector ETV
attr interpolationmode sample-hold
attr recordingmode vector
attr source radioModeChanged
attr title "Radio mode"
vector 187 Net1Test.U15.wlan[0].radio radioChannel:vector ETV
attr interpolationmode sample-hold
attr recordingmode vector
attr source radioChannelChanged
attr title "Radio channel"
vector 188 Net1Test.U16.wlan[0].radio radioMode:vector ETV
attr interpolationmode sample-hold
attr recordingmode vector
attr source radioModeChanged
attr title "Radio mode"
vector 189 Net1Test.U16.wlan[0].radio radioChannel:vector ETV
attr interpolationmode sample-hold
attr recordingmode vector
attr source radioChannelChanged
attr title "Radio channel"
vector 190 Net1Test.U17.wlan[0].radio radioMode:vector ETV
attr interpolationmode sample-hold
attr recordingmode vector
attr source radioModeChanged
attr title "Radio mode"
vector 191 Net1Test.U17.wlan[0].radio radioChannel:vector ETV
attr interpolationmode sample-hold
attr recordingmode vector
attr source radioChannelChanged
attr title "Radio channel"
vector 192 Net1Test.U18.wlan[0].radio radioMode:vector ETV
attr interpolationmode sample-hold
attr recordingmode vector
attr source radioModeChanged
attr title "Radio mode"
vector 193 Net1Test.U18.wlan[0].radio radioChannel:vector ETV
attr interpolationmode sample-hold
attr recordingmode vector
attr source radioChannelChanged
attr title "Radio channel"
vector 194 Net1Test.U19.wlan[0].radio radioMode:vector ETV
attr interpolationmode sample-hold
attr recordingmode vector
attr source radioModeChanged
attr title "Radio mode"
vector 195 Net1Test.U19.wlan[0].radio radioChannel:vector ETV
attr interpolationmode sample-hold
attr recordingmode vector
attr source radioChannelChanged
attr title "Radio channel"
vector 196 Net1Test.U20.wlan[0].radio radioMode:vector ETV
attr interpolationmode sample-hold
attr recordingmode vector
attr source radioModeChanged
attr title "Radio mode"
vector 197 Net1Test.U20.wlan[0].radio radioChannel:vector ETV
attr interpolationmode sample-hold
attr recordingmode vector
attr source radioChannelChanged
attr title "Radio channel"
vector 198 Net1Test.U21.wlan[0].radio radioMode:vector ETV
attr interpolationmode sample-hold
attr recordingmode vector
attr source radioModeChanged
attr title "Radio mode"
vector 199 Net1Test.U21.wlan[0].radio radioChannel:vector ETV
attr interpolationmode sample-hold
attr recordingmode vector
attr source radioChannelChanged
attr title "Radio channel"
vector 200 Net1Test.U22.wlan[0].radio radioMode:vector ETV
attr interpolationmode sample-hold
attr recordingmode vector
attr source radioModeChanged
attr title "Radio mode"
vector 201 Net1Test.U22.wlan[0].radio radioChannel:vector ETV
attr interpolationmode sample-hold
attr recordingmode vector
attr source radioChannelChanged
attr title "Radio channel"
vector 202 Net1Test.U23.wlan[0].radio radioMode:vector ETV
attr interpolationmode sample-hold
attr recordingmode vector
attr source radioModeChanged
attr title "Radio mode"
vector 203 Net1Test.U23.wlan[0].radio radioChannel:vector ETV
attr interpolationmode sample-hold
attr recordingmode vector
attr source radioChannelChanged
attr title "Radio channel"
vector 204 Net1Test.U24.wlan[0].radio radioMode:vector ETV
attr interpolationmode sample-hold
attr recordingmode vector
attr source radioModeChanged
attr title "Radio mode"
vector 205 Net1Test.U24.wlan[0].radio radioChannel:vector ETV
attr interpolationmode sample-hold
attr recordingmode vector
attr source radioChannelChanged
attr title "Radio channel"
vector 206 Net1Test.U25.wlan[0].radio radioMode:vector ETV
attr interpolationmode sample-hold
attr recordingmode vector
attr source radioModeChanged
attr title "Radio mode"
vector 207 Net1Test.U25.wlan[0].radio radioChannel:vector ETV
attr interpolationmode sample-hold
attr recordingmode vector
attr source radioChannelChanged
attr title "Radio channel"
vector 208 Net1Test.Source.wlan[0].radio receptionState:vector ETV
attr interpolationmode sample-hold
attr recordingmode vector
attr source receptionStateChanged
attr title "Radio reception state"
vector 209 Net1Test.Source.wlan[0].mac.dcf.channelAccess.contention stateChanged:vector ETV
attr enum IDLE,DEFER,IFS_AND_BACKOFF
attr interpolationmode none
attr recordingmode vector
attr title "contention state changed"
attr type enum
vector 210 Net1Test.Destination.wlan[0].radio receptionState:vector ETV
attr interpolationmode sample-hold
attr recordingmode vector
attr source receptionStateChanged
attr title "Radio reception state"
vector 211 Net1Test.Destination.wlan[0].mac.dcf.channelAccess.contention stateChanged:vector ETV
attr enum IDLE,DEFER,IFS_AND_BACKOFF
attr interpolationmode none
attr recordingmode vector
attr title "contention state changed"
attr type enum
vector 212 Net1Test.U2.wlan[0].radio receptionState:vector ETV
attr interpolationmode sample-hold
attr recordingmode vector
attr source receptionStateChanged
attr title "Radio reception state"
vector 213 Net1Test.U2.wlan[0].mac.dcf.channelAccess.contention stateChanged:vector ETV
attr enum IDLE,DEFER,IFS_AND_BACKOFF
attr interpolationmode none
attr recordingmode vector
attr title "contention state changed"
attr type enum
vector 214 Net1Test.U3.wlan[0].radio receptionState:vector ETV
attr interpolationmode sample-hold
attr recordingmode vector
attr source receptionStateChanged
attr title "Radio reception state"
vector 215 Net1Test.U3.wlan[0].mac.dcf.channelAccess.contention stateChanged:vector ETV
attr enum IDLE,DEFER,IFS_AND_BACKOFF
attr interpolationmode none
attr recordingmode vector
attr title "contention state changed"
attr type enum
vector 216 Net1Test.U4.wlan[0].radio receptionState:vector ETV
attr interpolationmode sample-hold
attr recordingmode vector
attr source receptionStateChanged
attr title "Radio reception state"
vector 217 Net1Test.U4.wlan[0].mac.dcf.channelAccess.contention stateChanged:vector ETV
attr enum IDLE,DEFER,IFS_AND_BACKOFF
attr interpolationmode none
attr recordingmode vector
attr title "contention state changed"
attr type enum
vector 218 Net1Test.U5.wlan[0].radio receptionState:vector ETV
attr interpolationmode sample-hold
attr recordingmode vector
attr source receptionStateChanged
attr title "Radio reception state"
vector 219 Net1Test.U5.wlan[0].mac.dcf.channelAccess.contention stateChanged:vector ETV
attr enum IDLE,DEFER,IFS_AND_BACKOFF
attr interpolationmode none
attr recordingmode vector
attr title "contention state changed"
attr type enum
vector 220 Net1Test.U6.wlan[0].radio receptionState:vector ETV
attr interpolationmode sample-hold
attr recordingmode vector
attr source receptionStateChanged
attr title "Radio reception state"
vector 221 Net1Test.U6.wlan[0].mac.dcf.channelAccess.contention stateChanged:vector ETV
attr enum IDLE,DEFER,IFS_AND_BACKOFF
attr interpolationmode none
attr recordingmode vector
attr title "contention state changed"
attr type enum
vector 222 Net1Test.U7.wlan[0].radio receptionState:vector ETV
attr interpolationmode sample-hold
attr recordingmode vector
attr source receptionStateChanged
attr title "Radio reception state"
vector 223 Net1Test.U7.wlan[0].mac.dcf.channelAccess.contention stateChanged:vector ETV
attr enum IDLE,DEFER,IFS_AND_BACKOFF
attr interpolationmode none
attr recordingmode vector
attr title "contention state changed"
attr type enum
vector 224 Net1Test.U8.wlan[0].radio receptionState:vector ETV
attr interpolationmode sample-hold
attr recordingmode vector
attr source receptionStateChanged
attr title "Radio reception state"
vector 225 Net1Test.U8.wlan[0].mac.dcf.channelAccess.contention stateChanged:vector ETV
attr enum IDLE,DEFER,IFS_AND_BACKOFF
attr interpolationmode none
attr recordingmode vector
attr title "contention state changed"
attr type enum
vector 226 Net1Test.U9.wlan[0].radio receptionState:vector ETV
attr interpolationmode sample-hold
attr recordingmode vector
attr source receptionStateChanged
attr title "Radio reception state"
vector 227 Net1Test.U9.wlan[0].mac.dcf.channelAccess.contention stateChanged:vector ETV
attr enum IDLE,DEFER,IFS_AND_BACKOFF
attr interpolationmode none
attr recordingmode vector
attr title "contention state changed"
attr type enum
vector 228 Net1Test.U10.wlan[0].radio receptionState:vector ETV
attr interpolationmode sample-hold
attr recordingmode vector
attr source receptionStateChanged
attr title "Radio reception state"
vector 229 Net1Test.U10.wlan[0].mac.dcf.channelAccess.contention stateChanged:vector ETV
attr enum IDLE,DEFER,IFS_AND_BACKOFF
attr interpolationmode none
attr recordingmode vector
attr title "contention state changed"
attr type enum
vector 230 Net1Test.U11.wlan[0].radio receptionState:vector ETV
attr interpolationmode sample-hold
attr recordingmode vector
attr source receptionStateChanged
attr title "Radio reception state"
vector 231 Net1Test.U11.wlan[0].mac.dcf.channelAccess.contention stateChanged:vector ETV
attr enum IDLE,DEFER,IFS_AND_BACKOFF
attr interpolationmode none
attr recordingmode vector
attr title "contention state changed"
attr type enum
vector 232 Net1Test.U12.wlan[0].radio receptionState:vector ETV
attr interpolationmode sample-hold
attr recordingmode vector
attr source receptionStateChanged
attr title "Radio reception state"
vector 233 Net1Test.U12.wlan[0].mac.dcf.channelAccess.contention stateChanged:vector ETV
attr enum IDLE,DEFER,IFS_AND_BACKOFF
attr interpolationmode none
attr recordingmode vector
attr title "contention state changed"
attr type enum
vector 234 Net1Test.U13.wlan[0].radio receptionState:vector ETV
attr interpolationmode sample-hold
attr recordingmode vector
attr source receptionStateChanged
attr title "Radio reception state"
vector 235 Net1Test.U13.wlan[0].mac.dcf.channelAccess.contention stateChanged:vector ETV
attr enum IDLE,DEFER,IFS_AND_BACKOFF
attr interpolationmode none
attr recordingmode vector
attr title "contention state changed"
attr type enum
vector 236 Net1Test.U14.wlan[0].radio receptionState:vector ETV
attr interpolationmode sample-hold
attr recordingmode vector
attr source receptionStateChanged
attr title "Radio reception state"
vector 237 Net1Test.U14.wlan[0].mac.dcf.channelAccess.contention stateChanged:vector ETV
attr enum IDLE,DEFER,IFS_AND_BACKOFF
attr interpolationmode none
attr recordingmode vector
attr title "contention state changed"
attr type enum
vector 238 Net1Test.U15.wlan[0].radio receptionState:vector ETV
attr interpolationmode sample-hold
attr recordingmode vector
attr source receptionStateChanged
attr title "Radio reception state"
vector 239 Net1Test.U15.wlan[0].mac.dcf.channelAccess.contention stateChanged:vector ETV
attr enum IDLE,DEFER,IFS_AND_BACKOFF
attr interpolationmode none
attr recordingmode vector
attr title "contention state changed"
attr type enum
vector 240 Net1Test.U16.wlan[0].radio receptionState:vector ETV
attr interpolationmode sample-hold
attr recordingmode vector
attr source receptionStateChanged
attr title "Radio reception state"
vector 241 Net1Test.U16.wlan[0].mac.dcf.channelAccess.contention stateChanged:vector ETV
attr enum IDLE,DEFER,IFS_AND_BACKOFF
attr interpolationmode none
attr recordingmode vector
attr title "contention state changed"
attr type enum
vector 242 Net1Test.U17.wlan[0].radio receptionState:vector ETV
attr interpolationmode sample-hold
attr recordingmode vector
attr source receptionStateChanged
attr title "Radio reception state"
vector 243 Net1Test.U17.wlan[0].mac.dcf.channelAccess.contention stateChanged:vector ETV
attr enum IDLE,DEFER,IFS_AND_BACKOFF
attr interpolationmode none
attr recordingmode vector
attr title "contention state changed"
attr type enum
vector 244 Net1Test.U18.wlan[0].radio receptionState:vector ETV
attr interpolationmode sample-hold
attr recordingmode vector
attr source receptionStateChanged
attr title "Radio reception state"
vector 245 Net1Test.U18.wlan[0].mac.dcf.channelAccess.contention stateChanged:vector ETV
attr enum IDLE,DEFER,IFS_AND_BACKOFF
attr interpolationmode none
attr recordingmode vector
attr title "contention state changed"
attr type enum
vector 246 Net1Test.U19.wlan[0].radio receptionState:vector ETV
attr interpolationmode sample-hold
attr recordingmode vector
attr source receptionStateChanged
attr title "Radio reception state"
vector 247 Net1Test.U19.wlan[0].mac.dcf.channelAccess.contention stateChanged:vector ETV
attr enum IDLE,DEFER,IFS_AND_BACKOFF
attr interpolationmode none
attr recordingmode vector
attr title "contention state changed"
attr type enum
vector 248 Net1Test.U20.wlan[0].radio receptionState:vector ETV
attr interpolationmode sample-hold
attr recordingmode vector
attr source receptionStateChanged
attr title "Radio reception state"
vector 249 Net1Test.U20.wlan[0].mac.dcf.channelAccess.contention stateChanged:vector ETV
attr enum IDLE,DEFER,IFS_AND_BACKOFF
attr interpolationmode none
attr recordingmode vector
attr title "contention state changed"
attr type enum
vector 250 Net1Test.U21.wlan[0].radio receptionState:vector ETV
attr interpolationmode sample-hold
attr recordingmode vector
attr source receptionStateChanged
attr title "Radio reception state"
vector 251 Net1Test.U21.wlan[0].mac.dcf.channelAccess.contention stateChanged:vector ETV
attr enum IDLE,DEFER,IFS_AND_BACKOFF
attr interpolationmode none
attr recordingmode vector
attr title "contention state changed"
attr type enum
vector 252 Net1Test.U22.wlan[0].radio receptionState:vector ETV
attr interpolationmode sample-hold
attr recordingmode vector
attr source receptionStateChanged
attr title "Radio reception state"
vector 253 Net1Test.U22.wlan[0].mac.dcf.channelAccess.contention stateChanged:vector ETV
attr enum IDLE,DEFER,IFS_AND_BACKOFF
attr interpolationmode none
attr recordingmode vector
attr title "contention state changed"
attr type enum
vector 254 Net1Test.U23.wlan[0].radio receptionState:vector ETV
attr interpolationmode sample-hold
attr recordingmode vector
attr source receptionStateChanged
attr title "Radio reception state"
vector 255 Net1Test.U23.wlan[0].mac.dcf.channelAccess.contention stateChanged:vector ETV
attr enum IDLE,DEFER,IFS_AND_BACKOFF
attr interpolationmode none
attr recordingmode vector
attr title "contention state changed"
attr type enum
vector 256 Net1Test.U24.wlan[0].radio receptionState:vector ETV
attr interpolationmode sample-hold
attr recordingmode vector
attr source receptionStateChanged
attr title "Radio reception state"
vector 257 Net1Test.U24.wlan[0].mac.dcf.channelAccess.contention stateChanged:vector ETV
attr enum IDLE,DEFER,IFS_AND_BACKOFF
attr interpolationmode none
attr recordingmode vector
attr title "contention state changed"
attr type enum
vector 258 Net1Test.U25.wlan[0].radio receptionState:vector ETV
attr interpolationmode sample-hold
attr recordingmode vector
attr source receptionStateChanged
attr title "Radio reception state"
vector 259 Net1Test.U25.wlan[0].mac.dcf.channelAccess.contention stateChanged:vector ETV
attr enum IDLE,DEFER,IFS_AND_BACKOFF
attr interpolationmode none
attr recordingmode vector
attr title "contention state changed"
attr type enum
vector 260 Net1Test.Source.wlan[0].mac.dcf.recoveryProcedure contentionWindowChanged:vector ETV
attr interpolationmode sample-hold
attr recordingmode vector
attr title "contention window"
vector 261 Net1Test.Destination.wlan[0].mac.dcf.recoveryProcedure contentionWindowChanged:vector ETV
attr interpolationmode sample-hold
attr recordingmode vector
attr title "contention window"
vector 262 Net1Test.U2.wlan[0].mac.dcf.recoveryProcedure contentionWindowChanged:vector ETV
attr interpolationmode sample-hold
attr recordingmode vector
attr title "contention window"
vector 263 Net1Test.U3.wlan[0].mac.dcf.recoveryProcedure contentionWindowChanged:vector ETV
attr interpolationmode sample-hold
attr recordingmode vector
attr title "contention window"
vector 264 Net1Test.U4.wlan[0].mac.dcf.recoveryProcedure contentionWindowChanged:vector ETV
attr interpolationmode sample-hold
attr recordingmode vector
attr title "contention window"
vector 265 Net1Test.U5.wlan[0].mac.dcf.recoveryProcedure contentionWindowChanged:vector ETV
attr interpolationmode sample-hold
attr recordingmode vector
attr title "contention window"
vector 266 Net1Test.U6.wlan[0].mac.dcf.recoveryProcedure contentionWindowChanged:vector ETV
attr interpolationmode sample-hold
attr recordingmode vector
attr title "contention window"
vector 267 Net1Test.U7.wlan[0].mac.dcf.recoveryProcedure contentionWindowChanged:vector ETV
attr interpolationmode sample-hold
attr recordingmode vector
attr title "contention window"
vector 268 Net1Test.U8.wlan[0].mac.dcf.recoveryProcedure contentionWindowChanged:vector ETV
attr interpolationmode sample-hold
attr recordingmode vector
attr title "contention window"
vector 269 Net1Test.U9.wlan[0].mac.dcf.recoveryProcedure contentionWindowChanged:vector ETV
attr interpolationmode sample-hold
attr recordingmode vector
attr title "contention window"
vector 270 Net1Test.U10.wlan[0].mac.dcf.recoveryProcedure contentionWindowChanged:vector ETV
attr interpolationmode sample-hold
attr recordingmode vector
attr title "contention window"
vector 271 Net1Test.U11.wlan[0].mac.dcf.recoveryProcedure contentionWindowChanged:vector ETV
attr interpolationmode sample-hold
attr recordingmode vector
attr title "contention window"
vector 272 Net1Test.U12.wlan[0].mac.dcf.recoveryProcedure contentionWindowChanged:vector ETV
attr interpolationmode sample-hold
attr recordingmode vector
attr title "contention window"
vector 273 Net1Test.U13.wlan[0].mac.dcf.recoveryProcedure contentionWindowChanged:vector ETV
attr interpolationmode sample-hold
attr recordingmode vector
attr title "contention window"
vector 274 Net1Test.U14.wlan[0].mac.dcf.recoveryProcedure contentionWindowChanged:vector ETV
attr interpolationmode sample-hold
attr recordingmode vector
attr title "contention window"
vector 275 Net1Test.U15.wlan[0].mac.dcf.recoveryProcedure contentionWindowChanged:vector ETV
attr interpolationmode sample-hold
attr recordingmode vector
attr title "contention window"
vector 276 Net1Test.U16.wlan[0].mac.dcf.recoveryProcedure contentionWindowChanged:vector ETV
attr interpolationmode sample-hold
attr recordingmode vector
attr title "contention window"
vector 277 Net1Test.U17.wlan[0].mac.dcf.recoveryProcedure contentionWindowChanged:vector ETV
attr interpolationmode sample-hold
attr recordingmode vector
attr title "contention window"
vector 278 Net1Test.U18.wlan[0].mac.dcf.recoveryProcedure contentionWindowChanged:vector ETV
attr interpolationmode sample-hold
attr recordingmode vector
attr title "contention window"
vector 279 Net1Test.U19.wlan[0].mac.dcf.recoveryProcedure contentionWindowChanged:vector ETV
attr interpolationmode sample-hold
attr recordingmode vector
attr title "contention window"
vector 280 Net1Test.U20.wlan[0].mac.dcf.recoveryProcedure contentionWindowChanged:vector ETV
attr interpolationmode sample-hold
attr recordingmode vector
attr title "contention window"
vector 281 Net1Test.U21.wlan[0].mac.dcf.recoveryProcedure contentionWindowChanged:vector ETV
attr interpolationmode sample-hold
attr recordingmode vector
attr title "contention window"
vector 282 Net1Test.U22.wlan[0].mac.dcf.recoveryProcedure contentionWindowChanged:vector ETV
attr interpolationmode sample-hold
attr recordingmode vector
attr title "contention window"
vector 283 Net1Test.U23.wlan[0].mac.dcf.recoveryProcedure contentionWindowChanged:vector ETV
attr interpolationmode sample-hold
attr recordingmode vector
attr title "contention window"
vector 284 Net1Test.U24.wlan[0].mac.dcf.recoveryProcedure contentionWindowChanged:vector ETV
attr interpolationmode sample-hold
attr recordingmode vector
attr title "contention window"
vector 285 Net1Test.U25.wlan[0].mac.dcf.recoveryProcedure contentionWindowChanged:vector ETV
attr interpolationmode sample-hold
attr recordingmode vector
attr title "contention window"
vector 286 Net1Test.Source.app[0] packetSent:vector(packetBytes) ETV
attr interpolationmode none
attr recordingmode vector(packetBytes)
attr source packetSent
attr title "packets sent, packetBytes"
vector 287 Net1Test.Source.udp packetSent:vector(packetBytes) ETV
attr interpolationmode none
attr recordingmode vector(packetBytes)
attr source packetSent
attr title "packets sent, packetBytes"
vector 288 Net1Test.Source.wlan[0].mac packetReceivedFromUpper:vector(packetBytes) ETV
attr interpolationmode none
attr recordingmode vector(packetBytes)
attr title "packets received from upper layer, packetBytes"
vector 289 Net1Test.Source.wlan[0].mac.dcf.channelAccess.pendingQueue incomingPacketLengths:vector ETV
attr interpolationmode none
attr recordingmode vector
attr source packetLength(packetPushStarted)
attr title "incoming packet lengths"
attr unit b
vector 290 Net1Test.Source.wlan[0].mac.dcf.channelAccess.pendingQueue incomingDataRate:vector ETV
attr interpolationmode linear
attr recordingmode vector
attr source throughput(packetPushStarted)
attr title "incoming datarate"
attr unit bps
vector 291 Net1Test.Source.wlan[0].mac.dcf.channelAccess.pendingQueue queueLength:vector ETV
attr autoWarmupFilter false
attr interpolationmode sample-hold
attr recordingmode vector
attr source "warmup(atomic(constant0(packetPushEnded) + count(packetPushStarted) - count(packetPulled) - count(packetRemoved) - count(packetDropped)))"
attr title "queue length"
attr unit pk
vector 292 Net1Test.Source.wlan[0].mac.dcf.channelAccess.pendingQueue queueBitLength:vector ETV
attr autoWarmupFilter false
attr interpolationmode sample-hold
attr recordingmode vector
attr source "warmup(atomic(constant0(packetPushEnded) + sum(packetLength(packetPushStarted)) - sum(packetLength(packetPulled)) - sum(packetLength(packetRemoved)) - sum(packetLength(packetDropped))))"
attr title "queue bit length"
attr unit b
vector 293 Net1Test.Source.wlan[0].mac.dcf.channelAccess.contention backoffPeriodGenerated:vector ETV
attr interpolationmode none
attr recordingmode vector
attr title "backoff periods"
vector 294 Net1Test.Source.wlan[0].mac.dcf.channelAccess.pendingQueue queueingTime:vector ETV
attr interpolationmode none
attr recordingmode vector
attr source queueingTime(packetPulled)
attr title "queueing times"
attr unit s
vector 295 Net1Test.Source.wlan[0].mac.dcf.channelAccess.pendingQueue outgoingPacketLengths:vector ETV
attr interpolationmode none
attr recordingmode vector
attr source packetLength(packetPulled)
attr title "outgoing packet lengths"
attr unit b
vector 296 Net1Test.Source.wlan[0].mac.dcf.channelAccess.pendingQueue outgoingDataRate:vector ETV
attr interpolationmode linear
attr recordingmode vector
attr source throughput(packetPulled)
attr title "outgoing datarate"
attr unit bps
vector 297 Net1Test.Source.wlan[0].mac.dcf datarateSelected:vector ETV
attr interpolationmode none
attr recordingmode vector
attr title "datarates selected"
vector 298 Net1Test.Source.wlan[0].mac packetSentToLower:vector(packetBytes) ETV
attr interpolationmode none
attr recordingmode vector(packetBytes)
attr title "packets sent to lower layer, packetBytes"
vector 299 Net1Test.Source.wlan[0].radio transmissionState:vector ETV
attr interpolationmode sample-hold
attr recordingmode vector
attr source transmissionStateChanged
attr title "Radio transmission state"
vector 300 Net1Test.Source.wlan[0].mac.dcf packetSentToPeer:vector(packetBytes) ETV
attr interpolationmode none
attr recordingmode vector(packetBytes)
attr title "packets sent, packetBytes"
vector 301 Net1Test.Source.wlan[0].mac.dcf packetSentToPeerMulticast:vector(packetBytes) ETV
attr interpolationmode none
attr recordingmode vector(packetBytes)
attr source ieee80211Multicast(packetSentToPeer)
attr title "packets sent: multicast, packetBytes"
vector 302 Net1Test.Source.wlan[0].mac.dcf packetSentToPeerBroadcast:vector(packetBytes) ETV
attr interpolationmode none
attr recordingmode vector(packetBytes)
attr source ieee80211Broadcast(packetSentToPeer)
attr title "packets sent: broadcast , packetBytes"
vector 303 Net1Test.Source.wlan[0].mac.dcf packetSentToPeerWithoutRetry:vector(packetBytes) ETV
attr interpolationmode none
attr recordingmode vector(packetBytes)
attr source ieee80211NotRetry(packetSentToPeer)
attr title "packets sent: without retry, packetBytes"
vector 304 Net1Test.Source.wlan[0].mac.dcf.channelAccess.inProgressFrames queueingTime:vector ETV
attr interpolationmode none
attr recordingmode vector
attr source queueingTime(packetDequeued)
attr title "queueing times"
vector 305 Net1Test.U13.wlan[0].mac packetReceivedFromLower:vector(packetBytes) ETV
attr interpolationmode none
attr recordingmode vector(packetBytes)
attr title "packets received from lower layer, packetBytes"
vector 306 Net1Test.U13.wlan[0].mac.dcf packetReceivedFromPeer:vector(packetBytes) ETV
attr interpolationmode none
attr recordingmode vector(packetBytes)
attr title "packets received, packetBytes"
vector 307 Net1Test.U13.wlan[0].mac.dcf packetReceivedFromPeerMulticast:vector(packetBytes) ETV
attr interpolationmode none
attr recordingmode vector(packetBytes)
attr source ieee80211Multicast(packetReceivedFromPeer)
attr title "packets received: multicast, packetBytes"
vector 308 Net1Test.U13.wlan[0].mac.dcf packetReceivedFromPeerBroadcast:vector(packetBytes) ETV
attr interpolationmode none
attr recordingmode vector(packetBytes)
attr source ieee80211Broadcast(packetReceivedFromPeer)
attr title "packets received: broadcast, packetBytes"
vector 309 Net1Test.U13.wlan[0].mac.dcf packetReceivedFromPeerWithoutRetry:vector(packetBytes) ETV
attr interpolationmode none
attr recordingmode vector(packetBytes)
attr source ieee80211NotRetry(packetReceivedFromPeer)
attr title "packets received: without retry, packetBytes"
vector 310 Net1Test.U13.wlan[0].mac packetSentToUpper:vector(packetBytes) ETV
attr interpolationmode none
attr recordingmode vector(packetBytes)
attr title "packets sent to upper layer, packetBytes"
vector 311 Net1Test.U13.udp packetReceived:vector(packetBytes) ETV
attr interpolationmode none
attr recordingmode vector(packetBytes)
attr source packetReceived
attr title "packets received, packetBytes"
vector 312 Net1Test.U12.wlan[0].mac packetReceivedFromLower:vector(packetBytes) ETV
attr interpolationmode none
attr recordingmode vector(packetBytes)
attr title "packets received from lower layer, packetBytes"
vector 313 Net1Test.U12.wlan[0].mac.dcf packetReceivedFromPeer:vector(packetBytes) ETV
attr interpolationmode none
attr recordingmode vector(packetBytes)
attr title "packets received, packetBytes"
vector 314 Net1Test.U12.wlan[0].mac.dcf packetReceivedFromPeerMulticast:vector(packetBytes) ETV
attr interpolationmode none
attr recordingmode vector(packetBytes)
attr source ieee80211Multicast(packetReceivedFromPeer)
attr title "packets received: multicast, packetBytes"
vector 315 Net1Test.U12.wlan[0].mac.dcf packetReceivedFromPeerBroadcast:vector(packetBytes) ETV
attr interpolationmode none
attr recordingmode vector(packetBytes)
attr source ieee80211Broadcast(packetReceivedFromPeer)
attr title "packets received: broadcast, packetBytes"
vector 316 Net1Test.U12.wlan[0].mac.dcf packetReceivedFromPeerWithoutRetry:vector(packetBytes) ETV
attr interpolationmode none
attr recordingmode vector(packetBytes)
attr source ieee80211NotRetry(packetReceivedFromPeer)
attr title "packets received: without retry, packetBytes"
vector 317 Net1Test.U12.wlan[0].mac packetSentToUpper:vector(packetBytes) ETV
attr interpolationmode none
attr recordingmode vector(packetBytes)
attr title "packets sent to upper layer, packetBytes"
vector 318 Net1Test.U12.udp packetReceived:vector(packetBytes) ETV
attr interpolationmode none
attr recordingmode vector(packetBytes)
attr source packetReceived
attr title "packets received, packetBytes"
vector 319 Net1Test.U4.wlan[0].mac packetReceivedFromLower:vector(packetBytes) ETV
attr interpolationmode none
attr recordingmode vector(packetBytes)
attr title "packets received from lower layer, packetBytes"
vector 320 Net1Test.U4.wlan[0].mac.dcf packetReceivedFromPeer:vector(packetBytes) ETV
attr interpolationmode none
attr recordingmode vector(packetBytes)
attr title "packets received, packetBytes"
vector 321 Net1Test.U4.wlan[0].mac.dcf packetReceivedFromPeerMulticast:vector(packetBytes) ETV
attr interpolationmode none
attr recordingmode vector(packetBytes)
attr source ieee80211Multicast(packetReceivedFromPeer)
attr title "packets received: multicast, packetBytes"
vector 322 Net1Test.U4.wlan[0].mac.dcf packetReceivedFromPeerBroadcast:vector(packetBytes) ETV
attr interpolationmode none
attr recordingmode vector(packetBytes)
attr source ieee80211Broadcast(packetReceivedFromPeer)
attr title "packets received: broadcast, packetBytes"
vector 323 Net1Test.U4.wlan[0].mac.dcf packetReceivedFromPeerWithoutRetry:vector(packetBytes) ETV
attr interpolationmode none
attr recordingmode vector(packetBytes)
attr source ieee80211NotRetry(packetReceivedFromPeer)
attr title "packets received: without retry, packetBytes"
vector 324 Net1Test.U4.wlan[0].mac packetSentToUpper:vector(packetBytes) ETV
attr interpolationmode none
attr recordingmode vector(packetBytes)
attr title "packets sent to upper layer, packetBytes"
vector 325 Net1Test.U4.udp packetReceived:vector(packetBytes) ETV
attr interpolationmode none
attr recordingmode vector(packetBytes)
attr source packetReceived
attr title "packets received, packetBytes"
vector 326 Net1Test.U23.wlan[0].mac packetReceivedFromLower:vector(packetBytes) ETV
attr interpolationmode none
attr recordingmode vector(packetBytes)
attr title "packets received from lower layer, packetBytes"
vector 327 Net1Test.U23.wlan[0].mac.dcf packetReceivedFromPeer:vector(packetBytes) ETV
attr interpolationmode none
attr recordingmode vector(packetBytes)
attr title "packets received, packetBytes"
vector 328 Net1Test.U23.wlan[0].mac.dcf packetReceivedFromPeerMulticast:vector(packetBytes) ETV
attr interpolationmode none
attr recordingmode vector(packetBytes)
attr source ieee80211Multicast(packetReceivedFromPeer)
attr title "packets received: multicast, packetBytes"
vector 329 Net1Test.U23.wlan[0].mac.dcf packetReceivedFromPeerBroadcast:vector(packetBytes) ETV
attr interpolationmode none
attr recordingmode vector(packetBytes)
attr source ieee80211Broadcast(packetReceivedFromPeer)
attr title "packets received: broadcast, packetBytes"
vector 330 Net1Test.U23.wlan[0].mac.dcf packetReceivedFromPeerWithoutRetry:vector(packetBytes) ETV
attr interpolationmode none
attr recordingmode vector(packetBytes)
attr source ieee80211NotRetry(packetReceivedFromPeer)
attr title "packets received: without retry, packetBytes"
vector 331 Net1Test.U23.wlan[0].mac packetSentToUpper:vector(packetBytes) ETV
attr interpolationmode none
attr recordingmode vector(packetBytes)
attr title "packets sent to upper layer, packetBytes"
vector 332 Net1Test.U23.udp packetReceived:vector(packetBytes) ETV
attr interpolationmode none
attr recordingmode vector(packetBytes)
attr source packetReceived
attr title "packets received, packetBytes"
vector 333 Net1Test.U7.wlan[0].mac packetReceivedFromLower:vector(packetBytes) ETV
attr interpolationmode none
attr recordingmode vector(packetBytes)
attr title "packets received from lower layer, packetBytes"
vector 334 Net1Test.U7.wlan[0].mac.dcf packetReceivedFromPeer:vector(packetBytes) ETV
attr interpolationmode none
attr recordingmode vector(packetBytes)
attr title "packets received, packetBytes"
vector 335 Net1Test.U7.wlan[0].mac.dcf packetReceivedFromPeerMulticast:vector(packetBytes) ETV
attr interpolationmode none
attr recordingmode vector(packetBytes)
attr source ieee80211Multicast(packetReceivedFromPeer)
attr title "packets received: multicast, packetBytes"
vector 336 Net1Test.U7.wlan[0].mac.dcf packetReceivedFromPeerBroadcast:vector(packetBytes) ETV
attr interpolationmode none
attr recordingmode vector(packetBytes)
attr source ieee80211Broadcast(packetReceivedFromPeer)
attr title "packets received: broadcast, packetBytes"
vector 337 Net1Test.U7.wlan[0].mac.dcf packetReceivedFromPeerWithoutRetry:vector(packetBytes) ETV
attr interpolationmode none
attr recordingmode vector(packetBytes)
attr source ieee80211NotRetry(packetReceivedFromPeer)
attr title "packets received: without retry, packetBytes"
vector 338 Net1Test.U7.wlan[0].mac packetSentToUpper:vector(packetBytes) ETV
attr interpolationmode none
attr recordingmode vector(packetBytes)
attr title "packets sent to upper layer, packetBytes"
vector 339 Net1Test.U7.udp packetReceived:vector(packetBytes) ETV
attr interpolationmode none
attr recordingmode vector(packetBytes)
attr source packetReceived
attr title "packets received, packetBytes"
vector 340 Net1Test.U13.udp packetSent:vector(packetBytes) ETV
attr interpolationmode none
attr recordingmode vector(packetBytes)
attr source packetSent
attr title "packets sent, packetBytes"
vector 341 Net1Test.U13.wlan[0].mac packetReceivedFromUpper:vector(packetBytes) ETV
attr interpolationmode none
attr recordingmode vector(packetBytes)
attr title "packets received from upper layer, packetBytes"
vector 342 Net1Test.U13.wlan[0].mac.dcf.channelAccess.pendingQueue incomingPacketLengths:vector ETV
attr interpolationmode none
attr recordingmode vector
attr source packetLength(packetPushStarted)
attr title "incoming packet lengths"
attr unit b
vector 343 Net1Test.U13.wlan[0].mac.dcf.channelAccess.pendingQueue incomingDataRate:vector ETV
[...]
753	9499887 33 2175 2175 2.330918909978 2.330918909978 1 24000000 24000000 24000000 5.76e+14
754	9499920 27 2175 2175 2.330918909978 2.330918909978 1 88 88 88 7744
755	9499947 104 2176 2204 2.330918909978 2.330976909978 4 0 2 4 6
756	9500051 27 2203 2203 2.330976909978 2.330976909978 1 88 88 88 7744
757	9500078 27 2203 2203 2.330976909978 2.330976909978 1 88 88 88 7744
758	9500105 27 2203 2203 2.330976909978 2.330976909978 1 88 88 88 7744
759	9500132 27 2203 2203 2.330976909978 2.330976909978 1 88 88 88 7744
760	9500159 32 2203 2203 2.330976909978 2.330976909978 1 5.8e-05 5.8e-05 5.8e-05 3.364e-09
761	9500191 27 2271 2271 2.331065901383 2.331065901383 1 32 32 32 1024
762	9500218 27 2274 2274 2.331065901383 2.331065901383 1 60 60 60 3600
763	9500245 28 2274 2274 2.331065901383 2.331065901383 1 704 704 704 495616
764	9500273 21607 2274 270867 0.1 121 1210 0 7040 7040 49561600
765	9521880 51 2274 2276 2.331065901383 2.33160715348 2 0 1 1 1
766	9521931 53 2274 2276 2.331065901383 2.33160715348 2 0 704 704 495616
767	9521984 27 2274 2274 2.331065901383 2.331065901383 1 29 29 29 841
768	9522011 38 2276 2276 2.33160715348 2.33160715348 1 0.000541252097 0.000541252097 0.000541252097 2.929538325069e-07
769	9522049 27 2276 2276 2.33160715348 2.33160715348 1 704 704 704 495616
770	9522076 21607 2276 270867 0.1 121 1210 0 7040 7040 49561600
771	9543683 32 2276 2276 2.33160715348 2.33160715348 1 24000000 24000000 24000000 5.76e+14
772	9543715 26 2276 2276 2.33160715348 2.33160715348 1 88 88 88 7744
773	9543741 100 2277 2305 2.33160715348 2.33166515348 4 0 2 4 6
774	9543841 26 2304 2304 2.33166515348 2.33166515348 1 88 88 88 7744
775	9543867 26 2304 2304 2.33166515348 2.33166515348 1 88 88 88 7744
776	9543893 26 2304 2304 2.33166515348 2.33166515348 1 88 88 88 7744
777	9543919 26 2304 2304 2.33166515348 2.33166515348 1 88 88 88 7744
778	9543945 31 2304 2304 2.33166515348 2.33166515348 1 5.8e-05 5.8e-05 5.8e-05 3.364e-09
779	9543976 27 2377 2377 2.332192181754 2.332192181754 1 32 32 32 1024
780	9544003 27 2380 2380 2.332192181754 2.332192181754 1 60 60 60 3600
781	9544030 28 2380 2380 2.332192181754 2.332192181754 1 704 704 704 495616
782	9544058 21607 2380 270867 0.1 121 1210 0 7040 7040 49561600
783	9565665 52 2380 2382 2.332192181754 2.332192181754 2 0 1 1 1
784	9565717 54 2380 2382 2.332192181754 2.332192181754 2 0 704 704 495616
785	9565771 27 2380 2380 2.332192181754 2.332192181754 1 16 16 16 256
786	9565798 26 2382 2382 2.332192181754 2.332192181754 1 0 0 0 0
787	9565824 28 2382 2382 2.332192181754 2.332192181754 1 704 704 704 495616
788	9565852 21607 2382 270867 0.1 121 1210 0 7040 7040 49561600
789	9587459 33 2382 2382 2.332192181754 2.332192181754 1 24000000 24000000 24000000 5.76e+14
790	9587492 27 2382 2382 2.332192181754 2.332192181754 1 88 88 88 7744
791	9587519 104 2383 2416 2.332192181754 2.332250181754 4 0 2 4 6
792	9587623 27 2411 2411 2.332245118915 2.332245118915 1 32 32 32 1024
793	9587650 27 2414 2414 2.332245118915 2.332245118915 1 60 60 60 3600
794	9587677 28 2414 2414 2.332245118915 2.332245118915 1 704 704 704 495616
795	9587705 21607 2414 270867 0.1 121 1210 0 7040 7040 49561600
796	9609312 52 2414 2563 2.332245118915 2.332582612182 2 0 1 1 1
797	9609364 54 2414 2563 2.332245118915 2.332582612182 2 0 704 704 495616
798	9609418 26 2414 2414 2.332245118915 2.332245118915 1 8 8 8 64
799	9609444 27 2415 2415 2.332250181754 2.332250181754 1 88 88 88 7744
800	9609471 27 2415 2415 2.332250181754 2.332250181754 1 88 88 88 7744
801	9609498 27 2415 2415 2.332250181754 2.332250181754 1 88 88 88 7744
802	9609525 27 2415 2415 2.332250181754 2.332250181754 1 88 88 88 7744
803	9609552 32 2415 2415 2.332250181754 2.332250181754 1 5.8e-05 5.8e-05 5.8e-05 3.364e-09
804	9609584 53 2463 2995 2.33241403846 2.338089638948 2 28 32 60 1808
805	9609637 15157 2466 270612 2.33241403846 120.752473890506 480 36 1036 493324 510898224
806	9624794 15161 2466 270612 2.33241403846 120.752473890506 480 512 8512 4054112 34489644032
807	9639955 23061 2466 270867 0.1 121 1210 0 194240 40541120 3472055603200
808	9663016 27451 2466 270701 2.33241403846 120.753047890506 960 0 2 482 484
809	9690467 28891 2466 270701 2.33241403846 120.753047890506 960 0 17024 4071136 34779460608
810	9719358 14077 2466 270612 2.33241403846 120.752473890506 480 0 31 7776 164478
811	9733435 17065 2468 270701 2.33241403846 120.753047890506 480 0 0.001207413336 0.200021413336 9.9652042963951e-05
812	9750500 15162 2468 270701 2.33241403846 120.753047890506 480 512 8512 4054112 34489644032
813	9765662 23064 2468 270867 0.1 121 1210 0 194240 40541120 3472055603200
814	9788726 34105 2468 270701 2.33241403846 120.753047890506 958 24000000 24000000 22992000000 5.51808e+17
815	9822831 29310 2468 270701 2.33241403846 120.753047890506 958 14 1064 513456 538994376
816	9852141 109600 2469 270730 2.33241403846 120.753429890506 3832 0 2 3832 5748
817	9961741 29310 2496 270729 2.33247203846 120.753429890506 958 14 1064 513456 538994376
818	9991051 53 2496 3028 2.33247203846 2.338139638948 2 64 88 152 11840
819	9991104 53 2496 3028 2.33247203846 2.338139638948 2 64 88 152 11840
820	9991157 29310 2496 270729 2.33247203846 120.753429890506 958 14 1064 513456 538994376
821	10020467 19936 2496 270811 2.33247203846 120.753475511752 480 5e-05 0.001505242492 0.204932372164 8.9149924135131e-05
822	10040403 43493 2505 270809 2.33247247409 120.753475470282 1438 14 1064 520370 539106764
823	10083896 107 2505 3035 2.33247247409 2.338140074578 4 64 88 304 23680
824	10084003 107 2505 3035 2.33247247409 2.338140074578 4 64 88 304 23680
825	10084110 107 2505 3035 2.33247247409 2.338140074578 4 64 88 304 23680
826	10084217 107 2505 3035 2.33247247409 2.338140074578 4 64 88 304 23680
827	10084324 107 2505 3035 2.33247247409 2.338140074578 4 36 60 192 9792
828	10084431 53 2508 2621 2.33247247409 2.332641322747 2 32 32 64 2048
829	10084484 29328 2535 270744 2.332472849083 120.753430701129 958 14 1064 513456 538994376
830	10113812 15167 2535 270744 2.332472849083 120.753430701129 480 14 1064 506694 538893828
831	10128979 54 2535 3057 2.332472849083 2.338140449571 2 64 88 152 11840
832	10129033 54 2535 3057 2.332472849083 2.338140449571 2 64 88 152 11840
833	10129087 15167 2535 270744 2.332472849083 120.753430701129 480 14 1064 506694 538893828
834	10144254 15140 2535 270744 2.332472849083 120.753430701129 479 36 1036 493268 510895088
835	10159394 15086 2538 270747 2.332472849083 120.753430701129 477 32 1008 479840 483647488
836	10174480 27 2540 2540 2.332472849083 2.332472849083 1 28 28 28 784
837	10174507 27 2541 2541 2.332472849083 2.332472849083 1 28 28 28 784
838	10174534 54 2543 2767 2.332472849083 2.332974470329 2 36 56 92 4432
839	10174588 56 2543 2767 2.332472849083 2.332974470329 2 512 672 1184 713728
840	10174644 21608 2543 270867 0.1 121 1210 0 11840 11840 140185600
841	10196252 104 2543 2854 2.332472849083 2.333608470329 4 0 1 2 2
842	10196356 108 2543 2854 2.332472849083 2.333608470329 4 0 672 1184 713728
843	10196464 54 2543 2767 2.332472849083 2.332974470329 2 10 27 37 829
844	10196518 39 2563 2563 2.332582612182 2.332582612182 1 0.000337493267 0.000337493267 0.000337493267 1.1390170527033e-07
845	10196557 28 2563 2563 2.332582612182 2.332582612182 1 704 704 704 495616
846	10196585 21607 2563 270867 0.1 121 1210 0 7040 7040 49561600
847	10218192 33 2563 2563 2.332582612182 2.332582612182 1 24000000 24000000 24000000 5.76e+14
848	10218225 27 2563 2563 2.332582612182 2.332582612182 1 88 88 88 7744
849	10218252 104 2564 2592 2.332582612182 2.332640612182 4 0 2 4 6
850	10218356 27 2591 2591 2.332640612182 2.332640612182 1 88 88 88 7744
851	10218383 27 2591 2591 2.332640612182 2.332640612182 1 88 88 88 7744
852	10218410 27 2591 2591 2.332640612182 2.332640612182 1 88 88 88 7744
853	10218437 27 2591 2591 2.332640612182 2.332640612182 1 88 88 88 7744
854	10218464 32 2591 2591 2.332640612182 2.332640612182 1 5.8e-05 5.8e-05 5.8e-05 3.364e-09
855	10218496 65 2649 2854 2.332722849083 2.333608470329 2 0.00025 0.000634 0.000884 4.64456e-07
856	10218561 56 2649 2854 2.332722849083 2.333608470329 2 512 672 1184 713728
857	10218617 21608 2649 270867 0.1 121 1210 0 11840 11840 140185600
858	10240225 17062 2649 270744 2.332722849083 120.753430701129 479 24000000 24000000 11496000000 2.75904e+17
859	10257287 14189 2649 270767 2.332722849083 120.753440701129 479 14 84 6826 104644
860	10271476 54840 2650 270803 2.332722849083 120.753474701129 1916 0 2 1916 2874
861	10326316 14189 2678 270802 2.332772849083 120.753474701129 479 14 84 6826 104644
862	10340505 27 2678 2678 2.332772849083 2.332772849083 1 64 64 64 4096
863	10340532 27 2678 2678 2.332772849083 2.332772849083 1 64 64 64 4096
864	10340559 14189 2678 270802 2.332772849083 120.753474701129 479 14 84 6826 104644
865	10354748 69 2678 2964 2.332772849083 2.333712091575 2 5e-05 0.000103621246 0.000153621246 1.3237362622593e-08
866	10354817 27 2695 2695 2.332773659706 2.332773659706 1 28 28 28 784
867	10354844 29257 2748 270729 2.332973659706 120.753429890506 956 14 1064 513304 538982536
868	10384101 43975 2748 270795 2.332973659706 120.753473890506 1437 0 4.4e-05 0.021076 9.27344e-07
869	10428076 43969 2751 270796 2.33297403425 120.75347426505 1437 0 4.4e-05 0.021076 9.27344e-07
870	10472045 43407 2751 270807 2.33297403425 120.753475385139 1434 14 1064 520066 539083084
871	10515452 43407 2751 270807 2.33297403425 120.753475385139 1434 14 1064 520066 539083084
872	10558859 43407 2751 270807 2.33297403425 120.753475385139 1434 14 1064 520066 539083084
873	10602266 43407 2751 270807 2.33297403425 120.753475385139 1434 14 1064 520066 539083084
874	10645673 43954 2753 270797 2.332974095336 120.753474326136 1437 0 4.4e-05 0.021076 9.27344e-07
875	10689627 43386 2753 270809 2.332974095336 120.753475470282 1434 14 1064 520066 539083084
876	10733013 43386 2753 270809 2.332974095336 120.753475470282 1434 14 1064 520066 539083084
877	10776399 43386 2753 270809 2.332974095336 120.753475470282 1434 14 1064 520066 539083084
878	10819785 43386 2753 270809 2.332974095336 120.753475470282 1434 14 1064 520066 539083084
879	10863171 87767 2755 270798 2.332974105548 120.753474336348 2868 0 4.4e-05 0.042064 1.850816e-06
880	10950938 58500 2755 270736 2.332974105548 120.753430336348 1912 14 1064 1026608 1077965072
881	11009438 58500 2755 270736 2.332974105548 120.753430336348 1912 14 1064 1026608 1077965072
882	11067938 58500 2755 270736 2.332974105548 120.753430336348 1912 14 1064 1026608 1077965072
883	11126438 58500 2755 270736 2.332974105548 120.753430336348 1912 14 1064 1026608 1077965072
884	11184938 87809 2757 270799 2.332974185279 120.753474416079 2868 0 4.4e-05 0.042064 1.850816e-06
885	11272747 58530 2757 270738 2.332974185279 120.753430416079 1912 14 1064 1026608 1077965072
886	11331277 58530 2757 270738 2.332974185279 120.753430416079 1912 14 1064 1026608 1077965072
887	11389807 58530 2757 270738 2.332974185279 120.753430416079 1912 14 1064 1026608 1077965072
888	11448337 58530 2757 270738 2.332974185279 120.753430416079 1912 14 1064 1026608 1077965072
889	11506867 87779 2759 270800 2.332974233428 120.753474464228 2868 0 4.4e-05 0.042064 1.850816e-06
890	11594646 58509 2759 270740 2.332974233428 120.753430464228 1912 14 1064 1026608 1077965072
891	11653155 58509 2759 270740 2.332974233428 120.753430464228 1912 14 1064 1026608 1077965072
892	11711664 58509 2759 270740 2.332974233428 120.753430464228 1912 14 1064 1026608 1077965072
893	11770173 58509 2759 270740 2.332974233428 120.753430464228 1912 14 1064 1026608 1077965072
894	11828682 87770 2761 270801 2.332974367994 120.753474598794 2868 0 4.4e-05 0.042064 1.850816e-06
895	11916452 29252 2761 270742 2.332974367994 120.753430598794 956 14 1064 513304 538982536
896	11945704 29252 2761 270742 2.332974367994 120.753430598794 956 14 1064 513304 538982536
897	11974956 29252 2761 270742 2.332974367994 120.753430598794 956 14 1064 513304 538982536
898	12004208 29252 2761 270742 2.332974367994 120.753430598794 956 14 1064 513304 538982536
899	12033460 15113 2763 270744 2.332974470329 120.753430701129 478 14 1064 506542 538881988
900	12048573 14162 2821 270802 2.333018470329 120.753474701129 478 14 84 6762 100548
901	12062735 14140 2824 270805 2.333018927507 120.753475158307 478 14 84 6762 100548
902	12076875 14140 2824 270805 2.333018927507 120.753475158307 478 14 84 6762 100548
903	12091015 14140 2824 270805 2.333018927507 120.753475158307 478 14 84 6762 100548
904	12105155 14140 2824 270805 2.333018927507 120.753475158307 478 14 84 6762 100548
905	12119295 29244 2830 270811 2.333019280952 120.753475511752 956 14 1064 513304 538982536
906	12148539 168 2882 3320 2.333666470329 2.339297866147 6 0 4.4e-05 8.8e-05 3.872e-09
907	12148707 84 2885 2946 2.333666927507 2.333710927507 3 0 4.4e-05 4.4e-05 1.936e-09
908	12148791 27 2996 2996 2.338089638948 2.338089638948 1 28 28 28 784
909	12148818 27 3053 3053 2.338140347236 2.338140347236 1 28 28 28 784
910	12148845 29250 3108 270591 2.338840347236 120.752473182218 956 14 1064 513304 538982536
911	12178095 43873 3113 270660 2.338840833594 120.752517668576 1434 0 4.4e-05 0.021032 9.25408e-07
912	12221968 29243 3113 270596 2.338840833594 120.752473668576 956 14 1064 513304 538982536
913	12251211 29243 3113 270596 2.338840833594 120.752473668576 956 14 1064 513304 538982536
914	12280454 29243 3113 270596 2.338840833594 120.752473668576 956 14 1064 513304 538982536
915	12309697 29243 3113 270596 2.338840833594 120.752473668576 956 14 1064 513304 538982536
916	12338940 87778 3119 270663 2.338840929781 120.752517764763 2868 0 4.4e-05 0.042064 1.850816e-06
917	12426718 58509 3119 270602 2.338840929781 120.752473764763 1912 14 1064 1026608 1077965072
918	12485227 58509 3119 270602 2.338840929781 120.752473764763 1912 14 1064 1026608 1077965072
919	12543736 58509 3119 270602 2.338840929781 120.752473764763 1912 14 1064 1026608 1077965072
920	12602245 58509 3119 270602 2.338840929781 120.752473764763 1912 14 1064 1026608 1077965072
921	12660754 87814 3121 270664 2.338841043139 120.752517878121 2868 0 4.4e-05 0.042064 1.850816e-06
922	12748568 58534 3121 270604 2.338841043139 120.752473878121 1912 14 1064 1026608 1077965072
923	12807102 58534 3121 270604 2.338841043139 120.752473878121 1912 14 1064 1026608 1077965072
924	12865636 58534 3121 270604 2.338841043139 120.752473878121 1912 14 1064 1026608 1077965072
925	12924170 58534 3121 270604 2.338841043139 120.752473878121 1912 14 1064 1026608 1077965072
926	12982704 87682 3123 270665 2.338841053904 120.752517888886 2865 0 4.4e-05 0.04202 1.84888e-06
927	13070386 15100 3123 270606 2.338841053904 120.752473888886 478 14 1064 506542 538881988
928	13085486 15100 3123 270606 2.338841053904 120.752473888886 478 14 1064 506542 538881988
929	13100586 15100 3123 270606 2.338841053904 120.752473888886 478 14 1064 506542 538881988
930	13115686 15100 3123 270606 2.338841053904 120.752473888886 478 14 1064 506542 538881988
931	13130786 29252 3196 270679 2.338885763812 120.752518598794 956 14 1064 513304 538982536
932	13160038 14161 3198 270681 2.338885866147 120.752518701129 478 14 84 6762 100548
933	13174199 14161 3198 270681 2.338885866147 120.752518701129 478 14 84 6762 100548
934	13188360 14161 3198 270681 2.338885866147 120.752518701129 478 14 84 6762 100548
935	13202521 14161 3198 270681 2.338885866147 120.752518701129 478 14 84 6762 100548
936	13216682 27 3360 3360 2.342121976304 2.342121976304 1 28 28 28 784
937	13216709 27 3421 3421 2.342172682972 2.342172682972 1 28 28 28 784
938	13216736 29252 3476 270453 2.342492682972 120.75137647555 956 14 1064 513304 538982536
939	13245988 87600 3479 270520 2.342493108524 120.751420901102 2865 0 4.4e-05 0.04202 1.84888e-06
940	13333588 44312 3479 270456 2.342493108524 120.751376901102 1434 14 1064 1019846 1077864524
941	13377900 44312 3479 270456 2.342493108524 120.751376901102 1434 14 1064 1019846 1077864524
942	13422212 44312 3479 270456 2.342493108524 120.751376901102 1434 14 1064 1019846 1077864524
943	13466524 44312 3479 270456 2.342493108524 120.751376901102 1434 14 1064 1019846 1077864524
944	13510836 43851 3481 270521 2.342493145774 120.751420938352 1434 0 4.4e-05 0.021032 9.25408e-07
945	13554687 29229 3481 270458 2.342493145774 120.751376938352 956 14 1064 513304 538982536
946	13583916 29229 3481 270458 2.342493145774 120.751376938352 956 14 1064 513304 538982536
947	13613145 29229 3481 270458 2.342493145774 120.751376938352 956 14 1064 513304 538982536
948	13642374 29229 3481 270458 2.342493145774 120.751376938352 956 14 1064 513304 538982536
949	13671603 87705 3485 270523 2.342493206338 120.751420998916 2865 0 4.4e-05 0.04202 1.84888e-06
950	13759308 44361 3485 270462 2.342493206338 120.751376998916 1434 14 1064 1019846 1077864524
951	13803669 44361 3485 270462 2.342493206338 120.751376998916 1434 14 1064 1019846 1077864524
952	13848030 44361 3485 270462 2.342493206338 120.751376998916 1434 14 1064 1019846 1077864524
953	13892391 44361 3485 270462 2.342493206338 120.751376998916 1434 14 1064 1019846 1077864524
954	13936752 87567 3495 270527 2.342493441719 120.751421234297 2862 0 4.4e-05 0.041976 1.846944e-06
955	14024319 15080 3495 270472 2.342493441719 120.751377234297 478 14 1064 506542 538881988
956	14039399 15080 3495 270472 2.342493441719 120.751377234297 478 14 1064 506542 538881988
957	14054479 15080 3495 270472 2.342493441719 120.751377234297 478 14 1064 506542 538881988
958	14069559 15080 3495 270472 2.342493441719 120.751377234297 478 14 1064 506542 538881988
959	14084639 29251 3564 270541 2.342538096308 120.751421888886 956 14 1064 513304 538982536
960	14113890 14152 3566 270543 2.342538097928 120.751421890506 478 14 84 6762 100548
961	14128042 14152 3566 270543 2.342538097928 120.751421890506 478 14 84 6762 100548
962	14142194 14152 3566 270543 2.342538097928 120.751421890506 478 14 84 6762 100548
963	14156346 14152 3566 270543 2.342538097928 120.751421890506 478 14 84 6762 100548
964	14170498 26 3730 3730 2.34789883005 2.34789883005 1 28 28 28 784
965	14170524 27 3791 3791 2.347949588797 2.347949588797 1 28 28 28 784
966	14170551 15113 3842 270321 2.348429588797 120.750519716803 478 14 1064 506542 538881988
967	14185664 43809 3845 270386 2.348429991633 120.750564119639 1431 0 4.4e-05 0.020988 9.23472e-07
968	14229473 15105 3845 270324 2.348429991633 120.750520119639 478 14 1064 506542 538881988
969	14244578 15105 3845 270324 2.348429991633 120.750520119639 478 14 1064 506542 538881988
970	14259683 15105 3845 270324 2.348429991633 120.750520119639 478 14 1064 506542 538881988
971	14274788 15105 3845 270324 2.348429991633 120.750520119639 478 14 1064 506542 538881988
972	14289893 43740 3857 270391 2.348430371991 120.750564499997 1431 0 4.4e-05 0.020988 9.23472e-07
973	14333633 15082 3857 270336 2.348430371991 120.750520499997 478 14 1064 506542 538881988
974	14348715 15082 3857 270336 2.348430371991 120.750520499997 478 14 1064 506542 538881988
975	14363797 15082 3857 270336 2.348430371991 120.750520499997 478 14 1064 506542 538881988
976	14378879 15082 3857 270336 2.348430371991 120.750520499997 478 14 1064 506542 538881988
977	14393961 14128 3926 270405 2.348475106291 120.750565234297 478 14 84 6762 100548
978	14408089 15059 4954 270748 2.353921021447 120.753430701129 476 1000 1000 476000 476000000
979	14423148 23064 4954 270867 0.1 121 1210 0 160000 38080000 3059200000000
980	14446212 19819 4954 270748 2.353921021447 120.753430701129 476 0.001872984326 0.353921021447 1.763315160458 0.1399187767969
981	14466031 14473 4954 270748 2.353921021447 120.753430701129 476 0 475 113050 35836850
982	14480504 21650 270867 270867 0.1 121 1210 0 0 0 0
983	14502154 21650 270867 270867 0.1 121 1210 0 0 0 0
984	14523804 21650 270867 270867 0.1 121 1210 0 0 0 0
985	14545454 21650 270867 270867 0.1 121 1210 0 0 0 0
986	14567104 21650 270867 270867 0.1 121 1210 0 0 0 0
987	14588754 21650 270867 270867 0.1 121 1210 0 0 0 0
988	14610404 21650 270867 270867 0.1 121 1210 0 0 0 0
989	14632054 21650 270867 270867 0.1 121 1210 0 0 0 0
990	14653704 21650 270867 270867 0.1 121 1210 0 0 0 0

