file 15399059 1731058539                                        
version 3
run Aodv_Moblity_0mps-0-20241108-16:35:38-59774
attr configname Aodv_Moblity_0mps
attr datetime 20241108-16:35:38
attr datetimef 20241108-163538
attr experiment Aodv_Moblity_0mps
attr inifile Net1Test.ini
attr iterationvars ""
attr iterationvarsd ""
attr iterationvarsf ""
attr measurement ""
attr network Net1Test
attr processid 59774
attr repetition 0
attr replication #0
attr resultdir results
attr runnumber 0
attr seedset 0
config image-path ../../inet4.4/images
config extends "StationaryMobility, AODV"
config *.*.mobility.typename StationaryMobility
config *.*.routingApp.typename Aodv
config *.*.routingApp.helloInterval 2s
config network Net1Test
config sim-time-limit 121s
config repeat 3
config **.wlan[*].radio.typename Ieee80211ScalarRadio
config **.wlan[*].bitrate 24Mbps
config **.wlan[*].radio.transmitter.power 3dBm
config *.Destination.wlan[*].radio.displayCommunicationRange true
config *.Source.wlan[*].radio.displayCommunicationRange true
config *.radioMedium.pathLoss.typename FreeSpacePathLoss
config *.visualizer.osgVisualizer.typename IntegratedOsgVisualizer
config *.visualizer.osgVisualizer.sceneVisualizer.clearColor "\"skyblue\""
config *.visualizer.osgVisualizer.sceneVisualizer.sceneImage "\"showcases/desert\""
config *.visualizer.osgVisualizer.sceneVisualizer.sceneImageSize 6000m
config *.visualizer.osgVisualizer.sceneVisualizer.axisLength 6200m
config *.visualizer.osgVisualizer.sceneVisualizer.sceneMinX -1000m
config *.visualizer.osgVisualizer.sceneVisualizer.sceneMinY -1000m
config *.visualizer.osgVisualizer.sceneVisualizer.sceneMinZ 100m
config *.visualizer.osgVisualizer.sceneVisualizer.sceneMaxX 6100m
config *.visualizer.osgVisualizer.sceneVisualizer.sceneMaxY 6100m
config *.visualizer.osgVisualizer.sceneVisualizer.sceneMaxZ 1000m
config *.visualizer.*.networkRouteVisualizer.displayRoutes true
config *.visualizer.*.networkRouteVisualizer[0].packetFilter "\"UDP*\""
config *.visualizer.*.infoVisualizer.modules "\"*.*.app[0]\""
config *.visualizer.*.infoVisualizer.format "\"%t\""
config *.visualizer.*.infoVisualizer.placementHint "\"topCenter\""
config *.Source.numApps 1
config *.Source.app[0].typename UdpBasicApp
config *.Source.app[0].destAddresses "\"Destination\""
config *.Source.app[0].destPort 1000
config *.Source.app[0].sendInterval normal(250ms,10us)
config *.Source.app[0].startTime 2s
config *.Source.app[0].messageLength 1000Byte
config *.Source.app[0].packetName "\"UDPdata\""
config *.Destination.numApps 1
config *.Destination.app[0].typename UdpSink
config *.Destination.app[0].localPort 1000
config *.*.mobility.constraintAreaMinX 0m
config *.*.mobility.constraintAreaMinY 0m
config *.*.mobility.constraintAreaMinZ 0m
config *.*.mobility.constraintAreaMaxX 1000m
config *.*.mobility.constraintAreaMaxY 7500m
config *.*.mobility.constraintAreaMaxZ 0m

vector 0 Net1Test.Source.wlan[0].mac.dcf frameSequenceActive:vector ETV
attr autoWarmupFilter false
attr interpolationmode sample-hold
attr recordingmode vector
attr source warmup(count(frameSequenceStarted)-count(frameSequenceFinished))
attr title "frame sequence active"
vector 1 Net1Test.Source.wlan[0].mac.dcf.channelAccess.inProgressFrames queueLength:vector ETV
attr autoWarmupFilter false
attr interpolationmode sample-hold
attr recordingmode vector
attr source "warmup(count(packetEnqueued) - count(packetDequeued))"
attr title "queue length"
vector 2 Net1Test.Source.wlan[0].mac.dcf.channelAccess.contention backoffActive:vector ETV
attr autoWarmupFilter false
attr interpolationmode sample-hold
attr recordingmode vector
attr source warmup(count(backoffStarted)-count(backoffStopped))
attr title "backoff active"
vector 3 Net1Test.Source.udp passedUpPk:vector(count) ETV
attr interpolationmode none
attr recordingmode vector(count)
attr source packetSentToUpper
attr title "packets passed up, count"
vector 4 Net1Test.Source.udp droppedPkWrongPort:vector(count) ETV
attr interpolationmode none
attr recordingmode vector(count)
attr source packetDropReasonIsNoPortFound(packetDropped)
attr title "packets dropped (wrong port), count"
vector 5 Net1Test.Source.udp droppedPkBadChecksum:vector(count) ETV
attr interpolationmode none
attr recordingmode vector(count)
attr source packetDropReasonIsIncorrectlyReceived(packetDropped)
attr title "packets dropped (checksum error), count"
vector 6 Net1Test.Destination.wlan[0].mac.dcf frameSequenceActive:vector ETV
attr autoWarmupFilter false
attr interpolationmode sample-hold
attr recordingmode vector
attr source warmup(count(frameSequenceStarted)-count(frameSequenceFinished))
attr title "frame sequence active"
vector 7 Net1Test.Destination.wlan[0].mac.dcf.channelAccess.inProgressFrames queueLength:vector ETV
attr autoWarmupFilter false
attr interpolationmode sample-hold
attr recordingmode vector
attr source "warmup(count(packetEnqueued) - count(packetDequeued))"
attr title "queue length"
vector 8 Net1Test.Destination.wlan[0].mac.dcf.channelAccess.contention backoffActive:vector ETV
attr autoWarmupFilter false
attr interpolationmode sample-hold
attr recordingmode vector
attr source warmup(count(backoffStarted)-count(backoffStopped))
attr title "backoff active"
vector 9 Net1Test.Destination.udp passedUpPk:vector(count) ETV
attr interpolationmode none
attr recordingmode vector(count)
attr source packetSentToUpper
attr title "packets passed up, count"
vector 10 Net1Test.Destination.udp droppedPkWrongPort:vector(count) ETV
attr interpolationmode none
attr recordingmode vector(count)
attr source packetDropReasonIsNoPortFound(packetDropped)
attr title "packets dropped (wrong port), count"
vector 11 Net1Test.Destination.udp droppedPkBadChecksum:vector(count) ETV
attr interpolationmode none
attr recordingmode vector(count)
attr source packetDropReasonIsIncorrectlyReceived(packetDropped)
attr title "packets dropped (checksum error), count"
vector 12 Net1Test.U2.wlan[0].mac.dcf frameSequenceActive:vector ETV
attr autoWarmupFilter false
attr interpolationmode sample-hold
attr recordingmode vector
attr source warmup(count(frameSequenceStarted)-count(frameSequenceFinished))
attr title "frame sequence active"
vector 13 Net1Test.U2.wlan[0].mac.dcf.channelAccess.inProgressFrames queueLength:vector ETV
attr autoWarmupFilter false
attr interpolationmode sample-hold
attr recordingmode vector
attr source "warmup(count(packetEnqueued) - count(packetDequeued))"
attr title "queue length"
vector 14 Net1Test.U2.wlan[0].mac.dcf.channelAccess.contention backoffActive:vector ETV
attr autoWarmupFilter false
attr interpolationmode sample-hold
attr recordingmode vector
attr source warmup(count(backoffStarted)-count(backoffStopped))
attr title "backoff active"
vector 15 Net1Test.U2.udp passedUpPk:vector(count) ETV
attr interpolationmode none
attr recordingmode vector(count)
attr source packetSentToUpper
attr title "packets passed up, count"
vector 16 Net1Test.U2.udp droppedPkWrongPort:vector(count) ETV
attr interpolationmode none
attr recordingmode vector(count)
attr source packetDropReasonIsNoPortFound(packetDropped)
attr title "packets dropped (wrong port), count"
vector 17 Net1Test.U2.udp droppedPkBadChecksum:vector(count) ETV
attr interpolationmode none
attr recordingmode vector(count)
attr source packetDropReasonIsIncorrectlyReceived(packetDropped)
attr title "packets dropped (checksum error), count"
vector 18 Net1Test.U3.wlan[0].mac.dcf frameSequenceActive:vector ETV
attr autoWarmupFilter false
attr interpolationmode sample-hold
attr recordingmode vector
attr source warmup(count(frameSequenceStarted)-count(frameSequenceFinished))
attr title "frame sequence active"
vector 19 Net1Test.U3.wlan[0].mac.dcf.channelAccess.inProgressFrames queueLength:vector ETV
attr autoWarmupFilter false
attr interpolationmode sample-hold
attr recordingmode vector
attr source "warmup(count(packetEnqueued) - count(packetDequeued))"
attr title "queue length"
vector 20 Net1Test.U3.wlan[0].mac.dcf.channelAccess.contention backoffActive:vector ETV
attr autoWarmupFilter false
attr interpolationmode sample-hold
attr recordingmode vector
attr source warmup(count(backoffStarted)-count(backoffStopped))
attr title "backoff active"
vector 21 Net1Test.U3.udp passedUpPk:vector(count) ETV
attr interpolationmode none
attr recordingmode vector(count)
attr source packetSentToUpper
attr title "packets passed up, count"
vector 22 Net1Test.U3.udp droppedPkWrongPort:vector(count) ETV
attr interpolationmode none
attr recordingmode vector(count)
attr source packetDropReasonIsNoPortFound(packetDropped)
attr title "packets dropped (wrong port), count"
vector 23 Net1Test.U3.udp droppedPkBadChecksum:vector(count) ETV
attr interpolationmode none
attr recordingmode vector(count)
attr source packetDropReasonIsIncorrectlyReceived(packetDropped)
attr title "packets dropped (checksum error), count"
vector 24 Net1Test.U4.wlan[0].mac.dcf frameSequenceActive:vector ETV
attr autoWarmupFilter false
attr interpolationmode sample-hold
attr recordingmode vector
attr source warmup(count(frameSequenceStarted)-count(frameSequenceFinished))
attr title "frame sequence active"
vector 25 Net1Test.U4.wlan[0].mac.dcf.channelAccess.inProgressFrames queueLength:vector ETV
attr autoWarmupFilter false
attr interpolationmode sample-hold
attr recordingmode vector
attr source "warmup(count(packetEnqueued) - count(packetDequeued))"
attr title "queue length"
vector 26 Net1Test.U4.wlan[0].mac.dcf.channelAccess.contention backoffActive:vector ETV
attr autoWarmupFilter false
attr interpolationmode sample-hold
attr recordingmode vector
attr source warmup(count(backoffStarted)-count(backoffStopped))
attr title "backoff active"
vector 27 Net1Test.U4.udp passedUpPk:vector(count) ETV
attr interpolationmode none
attr recordingmode vector(count)
attr source packetSentToUpper
attr title "packets passed up, count"
vector 28 Net1Test.U4.udp droppedPkWrongPort:vector(count) ETV
attr interpolationmode none
attr recordingmode vector(count)
attr source packetDropReasonIsNoPortFound(packetDropped)
attr title "packets dropped (wrong port), count"
vector 29 Net1Test.U4.udp droppedPkBadChecksum:vector(count) ETV
attr interpolationmode none
attr recordingmode vector(count)
attr source packetDropReasonIsIncorrectlyReceived(packetDropped)
attr title "packets dropped (checksum error), count"
vector 30 Net1Test.U5.wlan[0].mac.dcf frameSequenceActive:vector ETV
attr autoWarmupFilter false
attr interpolationmode sample-hold
attr recordingmode vector
attr source warmup(count(frameSequenceStarted)-count(frameSequenceFinished))
attr title "frame sequence active"
vector 31 Net1Test.U5.wlan[0].mac.dcf.channelAccess.inProgressFrames queueLength:vector ETV
attr autoWarmupFilter false
attr interpolationmode sample-hold
attr recordingmode vector
attr source "warmup(count(packetEnqueued) - count(packetDequeued))"
attr title "queue length"
vector 32 Net1Test.U5.wlan[0].mac.dcf.channelAccess.contention backoffActive:vector ETV
attr autoWarmupFilter false
attr interpolationmode sample-hold
attr recordingmode vector
attr source warmup(count(backoffStarted)-count(backoffStopped))
attr title "backoff active"
vector 33 Net1Test.U5.udp passedUpPk:vector(count) ETV
attr interpolationmode none
attr recordingmode vector(count)
attr source packetSentToUpper
attr title "packets passed up, count"
vector 34 Net1Test.U5.udp droppedPkWrongPort:vector(count) ETV
attr interpolationmode none
attr recordingmode vector(count)
attr source packetDropReasonIsNoPortFound(packetDropped)
attr title "packets dropped (wrong port), count"
vector 35 Net1Test.U5.udp droppedPkBadChecksum:vector(count) ETV
attr interpolationmode none
attr recordingmode vector(count)
attr source packetDropReasonIsIncorrectlyReceived(packetDropped)
attr title "packets dropped (checksum error), count"
vector 36 Net1Test.U6.wlan[0].mac.dcf frameSequenceActive:vector ETV
attr autoWarmupFilter false
attr interpolationmode sample-hold
attr recordingmode vector
attr source warmup(count(frameSequenceStarted)-count(frameSequenceFinished))
attr title "frame sequence active"
vector 37 Net1Test.U6.wlan[0].mac.dcf.channelAccess.inProgressFrames queueLength:vector ETV
attr autoWarmupFilter false
attr interpolationmode sample-hold
attr recordingmode vector
attr source "warmup(count(packetEnqueued) - count(packetDequeued))"
attr title "queue length"
vector 38 Net1Test.U6.wlan[0].mac.dcf.channelAccess.contention backoffActive:vector ETV
attr autoWarmupFilter false
attr interpolationmode sample-hold
attr recordingmode vector
attr source warmup(count(backoffStarted)-count(backoffStopped))
attr title "backoff active"
vector 39 Net1Test.U6.udp passedUpPk:vector(count) ETV
attr interpolationmode none
attr recordingmode vector(count)
attr source packetSentToUpper
attr title "packets passed up, count"
vector 40 Net1Test.U6.udp droppedPkWrongPort:vector(count) ETV
attr interpolationmode none
attr recordingmode vector(count)
attr source packetDropReasonIsNoPortFound(packetDropped)
attr title "packets dropped (wrong port), count"
vector 41 Net1Test.U6.udp droppedPkBadChecksum:vector(count) ETV
attr interpolationmode none
attr recordingmode vector(count)
attr source packetDropReasonIsIncorrectlyReceived(packetDropped)
attr title "packets dropped (checksum error), count"
vector 42 Net1Test.U7.wlan[0].mac.dcf frameSequenceActive:vector ETV
attr autoWarmupFilter false
attr interpolationmode sample-hold
attr recordingmode vector
attr source warmup(count(frameSequenceStarted)-count(frameSequenceFinished))
attr title "frame sequence active"
vector 43 Net1Test.U7.wlan[0].mac.dcf.channelAccess.inProgressFrames queueLength:vector ETV
attr autoWarmupFilter false
attr interpolationmode sample-hold
attr recordingmode vector
attr source "warmup(count(packetEnqueued) - count(packetDequeued))"
attr title "queue length"
vector 44 Net1Test.U7.wlan[0].mac.dcf.channelAccess.contention backoffActive:vector ETV
attr autoWarmupFilter false
attr interpolationmode sample-hold
attr recordingmode vector
attr source warmup(count(backoffStarted)-count(backoffStopped))
attr title "backoff active"
vector 45 Net1Test.U7.udp passedUpPk:vector(count) ETV
attr interpolationmode none
attr recordingmode vector(count)
attr source packetSentToUpper
attr title "packets passed up, count"
vector 46 Net1Test.U7.udp droppedPkWrongPort:vector(count) ETV
attr interpolationmode none
attr recordingmode vector(count)
attr source packetDropReasonIsNoPortFound(packetDropped)
attr title "packets dropped (wrong port), count"
vector 47 Net1Test.U7.udp droppedPkBadChecksum:vector(count) ETV
attr interpolationmode none
attr recordingmode vector(count)
attr source packetDropReasonIsIncorrectlyReceived(packetDropped)
attr title "packets dropped (checksum error), count"
vector 48 Net1Test.U8.wlan[0].mac.dcf frameSequenceActive:vector ETV
attr autoWarmupFilter false
attr interpolationmode sample-hold
attr recordingmode vector
attr source warmup(count(frameSequenceStarted)-count(frameSequenceFinished))
attr title "frame sequence active"
vector 49 Net1Test.U8.wlan[0].mac.dcf.channelAccess.inProgressFrames queueLength:vector ETV
attr autoWarmupFilter false
attr interpolationmode sample-hold
attr recordingmode vector
attr source "warmup(count(packetEnqueued) - count(packetDequeued))"
attr title "queue length"
vector 50 Net1Test.U8.wlan[0].mac.dcf.channelAccess.contention backoffActive:vector ETV
attr autoWarmupFilter false
attr interpolationmode sample-hold
attr recordingmode vector
attr source warmup(count(backoffStarted)-count(backoffStopped))
attr title "backoff active"
vector 51 Net1Test.U8.udp passedUpPk:vector(count) ETV
attr interpolationmode none
attr recordingmode vector(count)
attr source packetSentToUpper
attr title "packets passed up, count"
vector 52 Net1Test.U8.udp droppedPkWrongPort:vector(count) ETV
attr interpolationmode none
attr recordingmode vector(count)
attr source packetDropReasonIsNoPortFound(packetDropped)
attr title "packets dropped (wrong port), count"
vector 53 Net1Test.U8.udp droppedPkBadChecksum:vector(count) ETV
attr interpolationmode none
attr recordingmode vector(count)
attr source packetDropReasonIsIncorrectlyReceived(packetDropped)
attr title "packets dropped (checksum error), count"
vector 54 Net1Test.U9.wlan[0].mac.dcf frameSequenceActive:vector ETV
attr autoWarmupFilter false
attr interpolationmode sample-hold
attr recordingmode vector
attr source warmup(count(frameSequenceStarted)-count(frameSequenceFinished))
attr title "frame sequence active"
vector 55 Net1Test.U9.wlan[0].mac.dcf.channelAccess.inProgressFrames queueLength:vector ETV
attr autoWarmupFilter false
attr interpolationmode sample-hold
attr recordingmode vector
attr source "warmup(count(packetEnqueued) - count(packetDequeued))"
attr title "queue length"
vector 56 Net1Test.U9.wlan[0].mac.dcf.channelAccess.contention backoffActive:vector ETV
attr autoWarmupFilter false
attr interpolationmode sample-hold
attr recordingmode vector
attr source warmup(count(backoffStarted)-count(backoffStopped))
attr title "backoff active"
vector 57 Net1Test.U9.udp passedUpPk:vector(count) ETV
attr interpolationmode none
attr recordingmode vector(count)
attr source packetSentToUpper
attr title "packets passed up, count"
vector 58 Net1Test.U9.udp droppedPkWrongPort:vector(count) ETV
attr interpolationmode none
attr recordingmode vector(count)
attr source packetDropReasonIsNoPortFound(packetDropped)
attr title "packets dropped (wrong port), count"
vector 59 Net1Test.U9.udp droppedPkBadChecksum:vector(count) ETV
attr interpolationmode none
attr recordingmode vector(count)
attr source packetDropReasonIsIncorrectlyReceived(packetDropped)
attr title "packets dropped (checksum error), count"
vector 60 Net1Test.U10.wlan[0].mac.dcf frameSequenceActive:vector ETV
attr autoWarmupFilter false
attr interpolationmode sample-hold
attr recordingmode vector
attr source warmup(count(frameSequenceStarted)-count(frameSequenceFinished))
attr title "frame sequence active"
vector 61 Net1Test.U10.wlan[0].mac.dcf.channelAccess.inProgressFrames queueLength:vector ETV
attr autoWarmupFilter false
attr interpolationmode sample-hold
attr recordingmode vector
attr source "warmup(count(packetEnqueued) - count(packetDequeued))"
attr title "queue length"
vector 62 Net1Test.U10.wlan[0].mac.dcf.channelAccess.contention backoffActive:vector ETV
attr autoWarmupFilter false
attr interpolationmode sample-hold
attr recordingmode vector
attr source warmup(count(backoffStarted)-count(backoffStopped))
attr title "backoff active"
vector 63 Net1Test.U10.udp passedUpPk:vector(count) ETV
attr interpolationmode none
attr recordingmode vector(count)
attr source packetSentToUpper
attr title "packets passed up, count"
vector 64 Net1Test.U10.udp droppedPkWrongPort:vector(count) ETV
attr interpolationmode none
attr recordingmode vector(count)
attr source packetDropReasonIsNoPortFound(packetDropped)
attr title "packets dropped (wrong port), count"
vector 65 Net1Test.U10.udp droppedPkBadChecksum:vector(count) ETV
attr interpolationmode none
attr recordingmode vector(count)
attr source packetDropReasonIsIncorrectlyReceived(packetDropped)
attr title "packets dropped (checksum error), count"
vector 66 Net1Test.U11.wlan[0].mac.dcf frameSequenceActive:vector ETV
attr autoWarmupFilter false
attr interpolationmode sample-hold
attr recordingmode vector
attr source warmup(count(frameSequenceStarted)-count(frameSequenceFinished))
attr title "frame sequence active"
vector 67 Net1Test.U11.wlan[0].mac.dcf.channelAccess.inProgressFrames queueLength:vector ETV
attr autoWarmupFilter false
attr interpolationmode sample-hold
attr recordingmode vector
attr source "warmup(count(packetEnqueued) - count(packetDequeued))"
attr title "queue length"
vector 68 Net1Test.U11.wlan[0].mac.dcf.channelAccess.contention backoffActive:vector ETV
attr autoWarmupFilter false
attr interpolationmode sample-hold
attr recordingmode vector
attr source warmup(count(backoffStarted)-count(backoffStopped))
attr title "backoff active"
vector 69 Net1Test.U11.udp passedUpPk:vector(count) ETV
attr interpolationmode none
attr recordingmode vector(count)
attr source packetSentToUpper
attr title "packets passed up, count"
vector 70 Net1Test.U11.udp droppedPkWrongPort:vector(count) ETV
attr interpolationmode none
attr recordingmode vector(count)
attr source packetDropReasonIsNoPortFound(packetDropped)
attr title "packets dropped (wrong port), count"
vector 71 Net1Test.U11.udp droppedPkBadChecksum:vector(count) ETV
attr interpolationmode none
attr recordingmode vector(count)
attr source packetDropReasonIsIncorrectlyReceived(packetDropped)
attr title "packets dropped (checksum error), count"
vector 72 Net1Test.U12.wlan[0].mac.dcf frameSequenceActive:vector ETV
attr autoWarmupFilter false
attr interpolationmode sample-hold
attr recordingmode vector
attr source warmup(count(frameSequenceStarted)-count(frameSequenceFinished))
attr title "frame sequence active"
vector 73 Net1Test.U12.wlan[0].mac.dcf.channelAccess.inProgressFrames queueLength:vector ETV
attr autoWarmupFilter false
attr interpolationmode sample-hold
attr recordingmode vector
attr source "warmup(count(packetEnqueued) - count(packetDequeued))"
attr title "queue length"
vector 74 Net1Test.U12.wlan[0].mac.dcf.channelAccess.contention backoffActive:vector ETV
attr autoWarmupFilter false
attr interpolationmode sample-hold
attr recordingmode vector
attr source warmup(count(backoffStarted)-count(backoffStopped))
attr title "backoff active"
vector 75 Net1Test.U12.udp passedUpPk:vector(count) ETV
attr interpolationmode none
attr recordingmode vector(count)
attr source packetSentToUpper
attr title "packets passed up, count"
vector 76 Net1Test.U12.udp droppedPkWrongPort:vector(count) ETV
attr interpolationmode none
attr recordingmode vector(count)
attr source packetDropReasonIsNoPortFound(packetDropped)
attr title "packets dropped (wrong port), count"
vector 77 Net1Test.U12.udp droppedPkBadChecksum:vector(count) ETV
attr interpolationmode none
attr recordingmode vector(count)
attr source packetDropReasonIsIncorrectlyReceived(packetDropped)
attr title "packets dropped (checksum error), count"
vector 78 Net1Test.U13.wlan[0].mac.dcf frameSequenceActive:vector ETV
attr autoWarmupFilter false
attr interpolationmode sample-hold
attr recordingmode vector
attr source warmup(count(frameSequenceStarted)-count(frameSequenceFinished))
attr title "frame sequence active"
vector 79 Net1Test.U13.wlan[0].mac.dcf.channelAccess.inProgressFrames queueLength:vector ETV
attr autoWarmupFilter false
attr interpolationmode sample-hold
attr recordingmode vector
attr source "warmup(count(packetEnqueued) - count(packetDequeued))"
attr title "queue length"
vector 80 Net1Test.U13.wlan[0].mac.dcf.channelAccess.contention backoffActive:vector ETV
attr autoWarmupFilter false
attr interpolationmode sample-hold
attr recordingmode vector
attr source warmup(count(backoffStarted)-count(backoffStopped))
attr title "backoff active"
vector 81 Net1Test.U13.udp passedUpPk:vector(count) ETV
attr interpolationmode none
attr recordingmode vector(count)
attr source packetSentToUpper
attr title "packets passed up, count"
vector 82 Net1Test.U13.udp droppedPkWrongPort:vector(count) ETV
attr interpolationmode none
attr recordingmode vector(count)
attr source packetDropReasonIsNoPortFound(packetDropped)
attr title "packets dropped (wrong port), count"
vector 83 Net1Test.U13.udp droppedPkBadChecksum:vector(count) ETV
attr interpolationmode none
attr recordingmode vector(count)
attr source packetDropReasonIsIncorrectlyReceived(packetDropped)
attr title "packets dropped (checksum error), count"
vector 84 Net1Test.U14.wlan[0].mac.dcf frameSequenceActive:vector ETV
attr autoWarmupFilter false
attr interpolationmode sample-hold
attr recordingmode vector
attr source warmup(count(frameSequenceStarted)-count(frameSequenceFinished))
attr title "frame sequence active"
vector 85 Net1Test.U14.wlan[0].mac.dcf.channelAccess.inProgressFrames queueLength:vector ETV
attr autoWarmupFilter false
attr interpolationmode sample-hold
attr recordingmode vector
attr source "warmup(count(packetEnqueued) - count(packetDequeued))"
attr title "queue length"
vector 86 Net1Test.U14.wlan[0].mac.dcf.channelAccess.contention backoffActive:vector ETV
attr autoWarmupFilter false
attr interpolationmode sample-hold
attr recordingmode vector
attr source warmup(count(backoffStarted)-count(backoffStopped))
attr title "backoff active"
vector 87 Net1Test.U14.udp passedUpPk:vector(count) ETV
attr interpolationmode none
attr recordingmode vector(count)
attr source packetSentToUpper
attr title "packets passed up, count"
vector 88 Net1Test.U14.udp droppedPkWrongPort:vector(count) ETV
attr interpolationmode none
attr recordingmode vector(count)
attr source packetDropReasonIsNoPortFound(packetDropped)
attr title "packets dropped (wrong port), count"
vector 89 Net1Test.U14.udp droppedPkBadChecksum:vector(count) ETV
attr interpolationmode none
attr recordingmode vector(count)
attr source packetDropReasonIsIncorrectlyReceived(packetDropped)
attr title "packets dropped (checksum error), count"
vector 90 Net1Test.U15.wlan[0].mac.dcf frameSequenceActive:vector ETV
attr autoWarmupFilter false
attr interpolationmode sample-hold
attr recordingmode vector
attr source warmup(count(frameSequenceStarted)-count(frameSequenceFinished))
attr title "frame sequence active"
vector 91 Net1Test.U15.wlan[0].mac.dcf.channelAccess.inProgressFrames queueLength:vector ETV
attr autoWarmupFilter false
attr interpolationmode sample-hold
attr recordingmode vector
attr source "warmup(count(packetEnqueued) - count(packetDequeued))"
attr title "queue length"
vector 92 Net1Test.U15.wlan[0].mac.dcf.channelAccess.contention backoffActive:vector ETV
attr autoWarmupFilter false
attr interpolationmode sample-hold
attr recordingmode vector
attr source warmup(count(backoffStarted)-count(backoffStopped))
attr title "backoff active"
vector 93 Net1Test.U15.udp passedUpPk:vector(count) ETV
attr interpolationmode none
attr recordingmode vector(count)
attr source packetSentToUpper
attr title "packets passed up, count"
vector 94 Net1Test.U15.udp droppedPkWrongPort:vector(count) ETV
attr interpolationmode none
attr recordingmode vector(count)
attr source packetDropReasonIsNoPortFound(packetDropped)
attr title "packets dropped (wrong port), count"
vector 95 Net1Test.U15.udp droppedPkBadChecksum:vector(count) ETV
attr interpolationmode none
attr recordingmode vector(count)
attr source packetDropReasonIsIncorrectlyReceived(packetDropped)
attr title "packets dropped (checksum error), count"
vector 96 Net1Test.U16.wlan[0].mac.dcf frameSequenceActive:vector ETV
attr autoWarmupFilter false
attr interpolationmode sample-hold
attr recordingmode vector
attr source warmup(count(frameSequenceStarted)-count(frameSequenceFinished))
attr title "frame sequence active"
vector 97 Net1Test.U16.wlan[0].mac.dcf.channelAccess.inProgressFrames queueLength:vector ETV
attr autoWarmupFilter false
attr interpolationmode sample-hold
attr recordingmode vector
attr source "warmup(count(packetEnqueued) - count(packetDequeued))"
attr title "queue length"
vector 98 Net1Test.U16.wlan[0].mac.dcf.channelAccess.contention backoffActive:vector ETV
attr autoWarmupFilter false
attr interpolationmode sample-hold
attr recordingmode vector
attr source warmup(count(backoffStarted)-count(backoffStopped))
attr title "backoff active"
vector 99 Net1Test.U16.udp passedUpPk:vector(count) ETV
attr interpolationmode none
attr recordingmode vector(count)
attr source packetSentToUpper
attr title "packets passed up, count"
vector 100 Net1Test.U16.udp droppedPkWrongPort:vector(count) ETV
attr interpolationmode none
attr recordingmode vector(count)
attr source packetDropReasonIsNoPortFound(packetDropped)
attr title "packets dropped (wrong port), count"
vector 101 Net1Test.U16.udp droppedPkBadChecksum:vector(count) ETV
attr interpolationmode none
attr recordingmode vector(count)
attr source packetDropReasonIsIncorrectlyReceived(packetDropped)
attr title "packets dropped (checksum error), count"
vector 102 Net1Test.U17.wlan[0].mac.dcf frameSequenceActive:vector ETV
attr autoWarmupFilter false
attr interpolationmode sample-hold
attr recordingmode vector
attr source warmup(count(frameSequenceStarted)-count(frameSequenceFinished))
attr title "frame sequence active"
vector 103 Net1Test.U17.wlan[0].mac.dcf.channelAccess.inProgressFrames queueLength:vector ETV
attr autoWarmupFilter false
attr interpolationmode sample-hold
attr recordingmode vector
attr source "warmup(count(packetEnqueued) - count(packetDequeued))"
attr title "queue length"
vector 104 Net1Test.U17.wlan[0].mac.dcf.channelAccess.contention backoffActive:vector ETV
attr autoWarmupFilter false
attr interpolationmode sample-hold
attr recordingmode vector
attr source warmup(count(backoffStarted)-count(backoffStopped))
attr title "backoff active"
vector 105 Net1Test.U17.udp passedUpPk:vector(count) ETV
attr interpolationmode none
attr recordingmode vector(count)
attr source packetSentToUpper
attr title "packets passed up, count"
vector 106 Net1Test.U17.udp droppedPkWrongPort:vector(count) ETV
attr interpolationmode none
attr recordingmode vector(count)
attr source packetDropReasonIsNoPortFound(packetDropped)
attr title "packets dropped (wrong port), count"
vector 107 Net1Test.U17.udp droppedPkBadChecksum:vector(count) ETV
attr interpolationmode none
attr recordingmode vector(count)
attr source packetDropReasonIsIncorrectlyReceived(packetDropped)
attr title "packets dropped (checksum error), count"
vector 108 Net1Test.U18.wlan[0].mac.dcf frameSequenceActive:vector ETV
attr autoWarmupFilter false
attr interpolationmode sample-hold
attr recordingmode vector
attr source warmup(count(frameSequenceStarted)-count(frameSequenceFinished))
attr title "frame sequence active"
vector 109 Net1Test.U18.wlan[0].mac.dcf.channelAccess.inProgressFrames queueLength:vector ETV
attr autoWarmupFilter false
attr interpolationmode sample-hold
attr recordingmode vector
attr source "warmup(count(packetEnqueued) - count(packetDequeued))"
attr title "queue length"
vector 110 Net1Test.U18.wlan[0].mac.dcf.channelAccess.contention backoffActive:vector ETV
attr autoWarmupFilter false
attr interpolationmode sample-hold
attr recordingmode vector
attr source warmup(count(backoffStarted)-count(backoffStopped))
attr title "backoff active"
vector 111 Net1Test.U18.udp passedUpPk:vector(count) ETV
attr interpolationmode none
attr recordingmode vector(count)
attr source packetSentToUpper
attr title "packets passed up, count"
vector 112 Net1Test.U18.udp droppedPkWrongPort:vector(count) ETV
attr interpolationmode none
attr recordingmode vector(count)
attr source packetDropReasonIsNoPortFound(packetDropped)
attr title "packets dropped (wrong port), count"
vector 113 Net1Test.U18.udp droppedPkBadChecksum:vector(count) ETV
attr interpolationmode none
attr recordingmode vector(count)
attr source packetDropReasonIsIncorrectlyReceived(packetDropped)
attr title "packets dropped (checksum error), count"
vector 114 Net1Test.U19.wlan[0].mac.dcf frameSequenceActive:vector ETV
attr autoWarmupFilter false
attr interpolationmode sample-hold
attr recordingmode vector
attr source warmup(count(frameSequenceStarted)-count(frameSequenceFinished))
attr title "frame sequence active"
vector 115 Net1Test.U19.wlan[0].mac.dcf.channelAccess.inProgressFrames queueLength:vector ETV
attr autoWarmupFilter false
attr interpolationmode sample-hold
attr recordingmode vector
attr source "warmup(count(packetEnqueued) - count(packetDequeued))"
attr title "queue length"
vector 116 Net1Test.U19.wlan[0].mac.dcf.channelAccess.contention backoffActive:vector ETV
attr autoWarmupFilter false
attr interpolationmode sample-hold
attr recordingmode vector
attr source warmup(count(backoffStarted)-count(backoffStopped))
attr title "backoff active"
vector 117 Net1Test.U19.udp passedUpPk:vector(count) ETV
attr interpolationmode none
attr recordingmode vector(count)
attr source packetSentToUpper
attr title "packets passed up, count"
vector 118 Net1Test.U19.udp droppedPkWrongPort:vector(count) ETV
attr interpolationmode none
attr recordingmode vector(count)
attr source packetDropReasonIsNoPortFound(packetDropped)
attr title "packets dropped (wrong port), count"
vector 119 Net1Test.U19.udp droppedPkBadChecksum:vector(count) ETV
attr interpolationmode none
attr recordingmode vector(count)
attr source packetDropReasonIsIncorrectlyReceived(packetDropped)
attr title "packets dropped (checksum error), count"
vector 120 Net1Test.U20.wlan[0].mac.dcf frameSequenceActive:vector ETV
attr autoWarmupFilter false
attr interpolationmode sample-hold
attr recordingmode vector
attr source warmup(count(frameSequenceStarted)-count(frameSequenceFinished))
attr title "frame sequence active"
vector 121 Net1Test.U20.wlan[0].mac.dcf.channelAccess.inProgressFrames queueLength:vector ETV
attr autoWarmupFilter false
attr interpolationmode sample-hold
attr recordingmode vector
attr source "warmup(count(packetEnqueued) - count(packetDequeued))"
attr title "queue length"
vector 122 Net1Test.U20.wlan[0].mac.dcf.channelAccess.contention backoffActive:vector ETV
attr autoWarmupFilter false
attr interpolationmode sample-hold
attr recordingmode vector
attr source warmup(count(backoffStarted)-count(backoffStopped))
attr title "backoff active"
vector 123 Net1Test.U20.udp passedUpPk:vector(count) ETV
attr interpolationmode none
attr recordingmode vector(count)
attr source packetSentToUpper
attr title "packets passed up, count"
vector 124 Net1Test.U20.udp droppedPkWrongPort:vector(count) ETV
attr interpolationmode none
attr recordingmode vector(count)
attr source packetDropReasonIsNoPortFound(packetDropped)
attr title "packets dropped (wrong port), count"
vector 125 Net1Test.U20.udp droppedPkBadChecksum:vector(count) ETV
attr interpolationmode none
attr recordingmode vector(count)
attr source packetDropReasonIsIncorrectlyReceived(packetDropped)
attr title "packets dropped (checksum error), count"
vector 126 Net1Test.U21.wlan[0].mac.dcf frameSequenceActive:vector ETV
attr autoWarmupFilter false
attr interpolationmode sample-hold
attr recordingmode vector
attr source warmup(count(frameSequenceStarted)-count(frameSequenceFinished))
attr title "frame sequence active"
vector 127 Net1Test.U21.wlan[0].mac.dcf.channelAccess.inProgressFrames queueLength:vector ETV
attr autoWarmupFilter false
attr interpolationmode sample-hold
attr recordingmode vector
attr source "warmup(count(packetEnqueued) - count(packetDequeued))"
attr title "queue length"
vector 128 Net1Test.U21.wlan[0].mac.dcf.channelAccess.contention backoffActive:vector ETV
attr autoWarmupFilter false
attr interpolationmode sample-hold
attr recordingmode vector
attr source warmup(count(backoffStarted)-count(backoffStopped))
attr title "backoff active"
vector 129 Net1Test.U21.udp passedUpPk:vector(count) ETV
attr interpolationmode none
attr recordingmode vector(count)
attr source packetSentToUpper
attr title "packets passed up, count"
vector 130 Net1Test.U21.udp droppedPkWrongPort:vector(count) ETV
attr interpolationmode none
attr recordingmode vector(count)
attr source packetDropReasonIsNoPortFound(packetDropped)
attr title "packets dropped (wrong port), count"
vector 131 Net1Test.U21.udp droppedPkBadChecksum:vector(count) ETV
attr interpolationmode none
attr recordingmode vector(count)
attr source packetDropReasonIsIncorrectlyReceived(packetDropped)
attr title "packets dropped (checksum error), count"
vector 132 Net1Test.U22.wlan[0].mac.dcf frameSequenceActive:vector ETV
attr autoWarmupFilter false
attr interpolationmode sample-hold
attr recordingmode vector
attr source warmup(count(frameSequenceStarted)-count(frameSequenceFinished))
attr title "frame sequence active"
vector 133 Net1Test.U22.wlan[0].mac.dcf.channelAccess.inProgressFrames queueLength:vector ETV
attr autoWarmupFilter false
attr interpolationmode sample-hold
attr recordingmode vector
attr source "warmup(count(packetEnqueued) - count(packetDequeued))"
attr title "queue length"
vector 134 Net1Test.U22.wlan[0].mac.dcf.channelAccess.contention backoffActive:vector ETV
attr autoWarmupFilter false
attr interpolationmode sample-hold
attr recordingmode vector
attr source warmup(count(backoffStarted)-count(backoffStopped))
attr title "backoff active"
vector 135 Net1Test.U22.udp passedUpPk:vector(count) ETV
attr interpolationmode none
attr recordingmode vector(count)
attr source packetSentToUpper
attr title "packets passed up, count"
vector 136 Net1Test.U22.udp droppedPkWrongPort:vector(count) ETV
attr interpolationmode none
attr recordingmode vector(count)
attr source packetDropReasonIsNoPortFound(packetDropped)
attr title "packets dropped (wrong port), count"
vector 137 Net1Test.U22.udp droppedPkBadChecksum:vector(count) ETV
attr interpolationmode none
attr recordingmode vector(count)
attr source packetDropReasonIsIncorrectlyReceived(packetDropped)
attr title "packets dropped (checksum error), count"
vector 138 Net1Test.U23.wlan[0].mac.dcf frameSequenceActive:vector ETV
attr autoWarmupFilter false
attr interpolationmode sample-hold
attr recordingmode vector
attr source warmup(count(frameSequenceStarted)-count(frameSequenceFinished))
attr title "frame sequence active"
vector 139 Net1Test.U23.wlan[0].mac.dcf.channelAccess.inProgressFrames queueLength:vector ETV
attr autoWarmupFilter false
attr interpolationmode sample-hold
attr recordingmode vector
attr source "warmup(count(packetEnqueued) - count(packetDequeued))"
attr title "queue length"
vector 140 Net1Test.U23.wlan[0].mac.dcf.channelAccess.contention backoffActive:vector ETV
attr autoWarmupFilter false
attr interpolationmode sample-hold
attr recordingmode vector
attr source warmup(count(backoffStarted)-count(backoffStopped))
attr title "backoff active"
vector 141 Net1Test.U23.udp passedUpPk:vector(count) ETV
attr interpolationmode none
attr recordingmode vector(count)
attr source packetSentToUpper
attr title "packets passed up, count"
vector 142 Net1Test.U23.udp droppedPkWrongPort:vector(count) ETV
attr interpolationmode none
attr recordingmode vector(count)
attr source packetDropReasonIsNoPortFound(packetDropped)
attr title "packets dropped (wrong port), count"
vector 143 Net1Test.U23.udp droppedPkBadChecksum:vector(count) ETV
attr interpolationmode none
attr recordingmode vector(count)
attr source packetDropReasonIsIncorrectlyReceived(packetDropped)
attr title "packets dropped (checksum error), count"
vector 144 Net1Test.U24.wlan[0].mac.dcf frameSequenceActive:vector ETV
attr autoWarmupFilter false
attr interpolationmode sample-hold
attr recordingmode vector
attr source warmup(count(frameSequenceStarted)-count(frameSequenceFinished))
attr title "frame sequence active"
vector 145 Net1Test.U24.wlan[0].mac.dcf.channelAccess.inProgressFrames queueLength:vector ETV
attr autoWarmupFilter false
attr interpolationmode sample-hold
attr recordingmode vector
attr source "warmup(count(packetEnqueued) - count(packetDequeued))"
attr title "queue length"
vector 146 Net1Test.U24.wlan[0].mac.dcf.channelAccess.contention backoffActive:vector ETV
attr autoWarmupFilter false
attr interpolationmode sample-hold
attr recordingmode vector
attr source warmup(count(backoffStarted)-count(backoffStopped))
attr title "backoff active"
vector 147 Net1Test.U24.udp passedUpPk:vector(count) ETV
attr interpolationmode none
attr recordingmode vector(count)
attr source packetSentToUpper
attr title "packets passed up, count"
vector 148 Net1Test.U24.udp droppedPkWrongPort:vector(count) ETV
attr interpolationmode none
attr recordingmode vector(count)
attr source packetDropReasonIsNoPortFound(packetDropped)
attr title "packets dropped (wrong port), count"
vector 149 Net1Test.U24.udp droppedPkBadChecksum:vector(count) ETV
attr interpolationmode none
attr recordingmode vector(count)
attr source packetDropReasonIsIncorrectlyReceived(packetDropped)
attr title "packets dropped (checksum error), count"
vector 150 Net1Test.U25.wlan[0].mac.dcf frameSequenceActive:vector ETV
attr autoWarmupFilter false
attr interpolationmode sample-hold
attr recordingmode vector
attr source warmup(count(frameSequenceStarted)-count(frameSequenceFinished))
attr title "frame sequence active"
vector 151 Net1Test.U25.wlan[0].mac.dcf.channelAccess.inProgressFrames queueLength:vector ETV
attr autoWarmupFilter false
attr interpolationmode sample-hold
attr recordingmode vector
attr source "warmup(count(packetEnqueued) - count(packetDequeued))"
attr title "queue length"
vector 152 Net1Test.U25.wlan[0].mac.dcf.channelAccess.contention backoffActive:vector ETV
attr autoWarmupFilter false
attr interpolationmode sample-hold
attr recordingmode vector
attr source warmup(count(backoffStarted)-count(backoffStopped))
attr title "backoff active"
vector 153 Net1Test.U25.udp passedUpPk:vector(count) ETV
attr interpolationmode none
attr recordingmode vector(count)
attr source packetSentToUpper
attr title "packets passed up, count"
vector 154 Net1Test.U25.udp droppedPkWrongPort:vector(count) ETV
attr interpolationmode none
attr recordingmode vector(count)
attr source packetDropReasonIsNoPortFound(packetDropped)
attr title "packets dropped (wrong port), count"
vector 155 Net1Test.U25.udp droppedPkBadChecksum:vector(count) ETV
attr interpolationmode none
attr recordingmode vector(count)
attr source packetDropReasonIsIncorrectlyReceived(packetDropped)
attr title "packets dropped (checksum error), count"
vector 156 Net1Test.Source.wlan[0].radio radioMode:vector ETV
attr interpolationmode sample-hold
attr recordingmode vector
attr source radioModeChanged
attr title "Radio mode"
vector 157 Net1Test.Source.wlan[0].radio radioChannel:vector ETV
attr interpolationmode sample-hold
attr recordingmode vector
attr source radioChannelChanged
attr title "Radio channel"
vector 158 Net1Test.Destination.wlan[0].radio radioMode:vector ETV
attr interpolationmode sample-hold
attr recordingmode vector
attr source radioModeChanged
attr title "Radio mode"
vector 159 Net1Test.Destination.wlan[0].radio radioChannel:vector ETV
attr interpolationmode sample-hold
attr recordingmode vector
attr source radioChannelChanged
attr title "Radio channel"
vector 160 Net1Test.U2.wlan[0].radio radioMode:vector ETV
attr interpolationmode sample-hold
attr recordingmode vector
attr source radioModeChanged
attr title "Radio mode"
vector 161 Net1Test.U2.wlan[0].radio radioChannel:vector ETV
attr interpolationmode sample-hold
attr recordingmode vector
attr source radioChannelChanged
attr title "Radio channel"
vector 162 Net1Test.U3.wlan[0].radio radioMode:vector ETV
attr interpolationmode sample-hold
attr recordingmode vector
attr source radioModeChanged
attr title "Radio mode"
vector 163 Net1Test.U3.wlan[0].radio radioChannel:vector ETV
attr interpolationmode sample-hold
attr recordingmode vector
attr source radioChannelChanged
attr title "Radio channel"
vector 164 Net1Test.U4.wlan[0].radio radioMode:vector ETV
attr interpolationmode sample-hold
attr recordingmode vector
attr source radioModeChanged
attr title "Radio mode"
vector 165 Net1Test.U4.wlan[0].radio radioChannel:vector ETV
attr interpolationmode sample-hold
attr recordingmode vector
attr source radioChannelChanged
attr title "Radio channel"
vector 166 Net1Test.U5.wlan[0].radio radioMode:vector ETV
attr interpolationmode sample-hold
attr recordingmode vector
attr source radioModeChanged
attr title "Radio mode"
vector 167 Net1Test.U5.wlan[0].radio radioChannel:vector ETV
attr interpolationmode sample-hold
attr recordingmode vector
attr source radioChannelChanged
attr title "Radio channel"
vector 168 Net1Test.U6.wlan[0].radio radioMode:vector ETV
attr interpolationmode sample-hold
attr recordingmode vector
attr source radioModeChanged
attr title "Radio mode"
vector 169 Net1Test.U6.wlan[0].radio radioChannel:vector ETV
attr interpolationmode sample-hold
attr recordingmode vector
attr source radioChannelChanged
attr title "Radio channel"
vector 170 Net1Test.U7.wlan[0].radio radioMode:vector ETV
attr interpolationmode sample-hold
attr recordingmode vector
attr source radioModeChanged
attr title "Radio mode"
vector 171 Net1Test.U7.wlan[0].radio radioChannel:vector ETV
attr interpolationmode sample-hold
attr recordingmode vector
attr source radioChannelChanged
attr title "Radio channel"
vector 172 Net1Test.U8.wlan[0].radio radioMode:vector ETV
attr interpolationmode sample-hold
attr recordingmode vector
attr source radioModeChanged
attr title "Radio mode"
vector 173 Net1Test.U8.wlan[0].radio radioChannel:vector ETV
attr interpolationmode sample-hold
attr recordingmode vector
attr source radioChannelChanged
attr title "Radio channel"
vector 174 Net1Test.U9.wlan[0].radio radioMode:vector ETV
attr interpolationmode sample-hold
attr recordingmode vector
attr source radioModeChanged
attr title "Radio mode"
vector 175 Net1Test.U9.wlan[0].radio radioChannel:vector ETV
attr interpolationmode sample-hold
attr recordingmode vector
attr source radioChannelChanged
attr title "Radio channel"
vector 176 Net1Test.U10.wlan[0].radio radioMode:vector ETV
attr interpolationmode sample-hold
attr recordingmode vector
attr source radioModeChanged
attr title "Radio mode"
vector 177 Net1Test.U10.wlan[0].radio radioChannel:vector ETV
attr interpolationmode sample-hold
attr recordingmode vector
attr source radioChannelChanged
attr title "Radio channel"
vector 178 Net1Test.U11.wlan[0].radio radioMode:vector ETV
attr interpolationmode sample-hold
attr recordingmode vector
attr source radioModeChanged
attr title "Radio mode"
vector 179 Net1Test.U11.wlan[0].radio radioChannel:vector ETV
attr interpolationmode sample-hold
attr recordingmode vector
attr source radioChannelChanged
attr title "Radio channel"
vector 180 Net1Test.U12.wlan[0].radio radioMode:vector ETV
attr interpolationmode sample-hold
attr recordingmode vector
attr source radioModeChanged
attr title "Radio mode"
vector 181 Net1Test.U12.wlan[0].radio radioChannel:vector ETV
attr interpolationmode sample-hold
attr recordingmode vector
attr source radioChannelChanged
attr title "Radio channel"
vector 182 Net1Test.U13.wlan[0].radio radioMode:vector ETV
attr interpolationmode sample-hold
attr recordingmode vector
attr source radioModeChanged
attr title "Radio mode"
vector 183 Net1Test.U13.wlan[0].radio radioChannel:vector ETV
attr interpolationmode sample-hold
attr recordingmode vector
attr source radioChannelChanged
attr title "Radio channel"
vector 184 Net1Test.U14.wlan[0].radio radioMode:vector ETV
attr interpolationmode sample-hold
attr recordingmode vector
attr source radioModeChanged
attr title "Radio mode"
vector 185 Net1Test.U14.wlan[0].radio radioChannel:vector ETV
attr interpolationmode sample-hold
attr recordingmode vector
attr source radioChannelChanged
attr title "Radio channel"
vector 186 Net1Test.U15.wlan[0].radio radioMode:vector ETV
attr interpolationmode sample-hold
attr recordingmode vector
attr source radioModeChanged
attr title "Radio mode"
vector 187 Net1Test.U15.wlan[0].radio radioChannel:vector ETV
attr interpolationmode sample-hold
attr recordingmode vector
attr source radioChannelChanged
attr title "Radio channel"
vector 188 Net1Test.U16.wlan[0].radio radioMode:vector ETV
attr interpolationmode sample-hold
attr recordingmode vector
attr source radioModeChanged
attr title "Radio mode"
vector 189 Net1Test.U16.wlan[0].radio radioChannel:vector ETV
attr interpolationmode sample-hold
attr recordingmode vector
attr source radioChannelChanged
attr title "Radio channel"
vector 190 Net1Test.U17.wlan[0].radio radioMode:vector ETV
attr interpolationmode sample-hold
attr recordingmode vector
attr source radioModeChanged
attr title "Radio mode"
vector 191 Net1Test.U17.wlan[0].radio radioChannel:vector ETV
attr interpolationmode sample-hold
attr recordingmode vector
attr source radioChannelChanged
attr title "Radio channel"
vector 192 Net1Test.U18.wlan[0].radio radioMode:vector ETV
attr interpolationmode sample-hold
attr recordingmode vector
attr source radioModeChanged
attr title "Radio mode"
vector 193 Net1Test.U18.wlan[0].radio radioChannel:vector ETV
attr interpolationmode sample-hold
attr recordingmode vector
attr source radioChannelChanged
attr title "Radio channel"
vector 194 Net1Test.U19.wlan[0].radio radioMode:vector ETV
attr interpolationmode sample-hold
attr recordingmode vector
attr source radioModeChanged
attr title "Radio mode"
vector 195 Net1Test.U19.wlan[0].radio radioChannel:vector ETV
attr interpolationmode sample-hold
attr recordingmode vector
attr source radioChannelChanged
attr title "Radio channel"
vector 196 Net1Test.U20.wlan[0].radio radioMode:vector ETV
attr interpolationmode sample-hold
attr recordingmode vector
attr source radioModeChanged
attr title "Radio mode"
vector 197 Net1Test.U20.wlan[0].radio radioChannel:vector ETV
attr interpolationmode sample-hold
attr recordingmode vector
attr source radioChannelChanged
attr title "Radio channel"
vector 198 Net1Test.U21.wlan[0].radio radioMode:vector ETV
attr interpolationmode sample-hold
attr recordingmode vector
attr source radioModeChanged
attr title "Radio mode"
vector 199 Net1Test.U21.wlan[0].radio radioChannel:vector ETV
attr interpolationmode sample-hold
attr recordingmode vector
attr source radioChannelChanged
attr title "Radio channel"
vector 200 Net1Test.U22.wlan[0].radio radioMode:vector ETV
attr interpolationmode sample-hold
attr recordingmode vector
attr source radioModeChanged
attr title "Radio mode"
vector 201 Net1Test.U22.wlan[0].radio radioChannel:vector ETV
attr interpolationmode sample-hold
attr recordingmode vector
attr source radioChannelChanged
attr title "Radio channel"
vector 202 Net1Test.U23.wlan[0].radio radioMode:vector ETV
attr interpolationmode sample-hold
attr recordingmode vector
attr source radioModeChanged
attr title "Radio mode"
vector 203 Net1Test.U23.wlan[0].radio radioChannel:vector ETV
attr interpolationmode sample-hold
attr recordingmode vector
attr source radioChannelChanged
attr title "Radio channel"
vector 204 Net1Test.U24.wlan[0].radio radioMode:vector ETV
attr interpolationmode sample-hold
attr recordingmode vector
attr source radioModeChanged
attr title "Radio mode"
vector 205 Net1Test.U24.wlan[0].radio radioChannel:vector ETV
attr interpolationmode sample-hold
attr recordingmode vector
attr source radioChannelChanged
attr title "Radio channel"
vector 206 Net1Test.U25.wlan[0].radio radioMode:vector ETV
attr interpolationmode sample-hold
attr recordingmode vector
attr source radioModeChanged
attr title "Radio mode"
vector 207 Net1Test.U25.wlan[0].radio radioChannel:vector ETV
attr interpolationmode sample-hold
attr recordingmode vector
attr source radioChannelChanged
attr title "Radio channel"
vector 208 Net1Test.Source.wlan[0].radio receptionState:vector ETV
attr interpolationmode sample-hold
attr recordingmode vector
attr source receptionStateChanged
attr title "Radio reception state"
vector 209 Net1Test.Source.wlan[0].mac.dcf.channelAccess.contention stateChanged:vector ETV
attr enum IDLE,DEFER,IFS_AND_BACKOFF
attr interpolationmode none
attr recordingmode vector
attr title "contention state changed"
attr type enum
vector 210 Net1Test.Destination.wlan[0].radio receptionState:vector ETV
attr interpolationmode sample-hold
attr recordingmode vector
attr source receptionStateChanged
attr title "Radio reception state"
vector 211 Net1Test.Destination.wlan[0].mac.dcf.channelAccess.contention stateChanged:vector ETV
attr enum IDLE,DEFER,IFS_AND_BACKOFF
attr interpolationmode none
attr recordingmode vector
attr title "contention state changed"
attr type enum
vector 212 Net1Test.U2.wlan[0].radio receptionState:vector ETV
attr interpolationmode sample-hold
attr recordingmode vector
attr source receptionStateChanged
attr title "Radio reception state"
vector 213 Net1Test.U2.wlan[0].mac.dcf.channelAccess.contention stateChanged:vector ETV
attr enum IDLE,DEFER,IFS_AND_BACKOFF
attr interpolationmode none
attr recordingmode vector
attr title "contention state changed"
attr type enum
vector 214 Net1Test.U3.wlan[0].radio receptionState:vector ETV
attr interpolationmode sample-hold
attr recordingmode vector
attr source receptionStateChanged
attr title "Radio reception state"
vector 215 Net1Test.U3.wlan[0].mac.dcf.channelAccess.contention stateChanged:vector ETV
attr enum IDLE,DEFER,IFS_AND_BACKOFF
attr interpolationmode none
attr recordingmode vector
attr title "contention state changed"
attr type enum
vector 216 Net1Test.U4.wlan[0].radio receptionState:vector ETV
attr interpolationmode sample-hold
attr recordingmode vector
attr source receptionStateChanged
attr title "Radio reception state"
vector 217 Net1Test.U4.wlan[0].mac.dcf.channelAccess.contention stateChanged:vector ETV
attr enum IDLE,DEFER,IFS_AND_BACKOFF
attr interpolationmode none
attr recordingmode vector
attr title "contention state changed"
attr type enum
vector 218 Net1Test.U5.wlan[0].radio receptionState:vector ETV
attr interpolationmode sample-hold
attr recordingmode vector
attr source receptionStateChanged
attr title "Radio reception state"
vector 219 Net1Test.U5.wlan[0].mac.dcf.channelAccess.contention stateChanged:vector ETV
attr enum IDLE,DEFER,IFS_AND_BACKOFF
attr interpolationmode none
attr recordingmode vector
attr title "contention state changed"
attr type enum
vector 220 Net1Test.U6.wlan[0].radio receptionState:vector ETV
attr interpolationmode sample-hold
attr recordingmode vector
attr source receptionStateChanged
attr title "Radio reception state"
vector 221 Net1Test.U6.wlan[0].mac.dcf.channelAccess.contention stateChanged:vector ETV
attr enum IDLE,DEFER,IFS_AND_BACKOFF
attr interpolationmode none
attr recordingmode vector
attr title "contention state changed"
attr type enum
vector 222 Net1Test.U7.wlan[0].radio receptionState:vector ETV
attr interpolationmode sample-hold
attr recordingmode vector
attr source receptionStateChanged
attr title "Radio reception state"
vector 223 Net1Test.U7.wlan[0].mac.dcf.channelAccess.contention stateChanged:vector ETV
attr enum IDLE,DEFER,IFS_AND_BACKOFF
attr interpolationmode none
attr recordingmode vector
attr title "contention state changed"
attr type enum
vector 224 Net1Test.U8.wlan[0].radio receptionState:vector ETV
attr interpolationmode sample-hold
attr recordingmode vector
attr source receptionStateChanged
attr title "Radio reception state"
vector 225 Net1Test.U8.wlan[0].mac.dcf.channelAccess.contention stateChanged:vector ETV
attr enum IDLE,DEFER,IFS_AND_BACKOFF
attr interpolationmode none
attr recordingmode vector
attr title "contention state changed"
attr type enum
vector 226 Net1Test.U9.wlan[0].radio receptionState:vector ETV
attr interpolationmode sample-hold
attr recordingmode vector
attr source receptionStateChanged
attr title "Radio reception state"
vector 227 Net1Test.U9.wlan[0].mac.dcf.channelAccess.contention stateChanged:vector ETV
attr enum IDLE,DEFER,IFS_AND_BACKOFF
attr interpolationmode none
attr recordingmode vector
attr title "contention state changed"
attr type enum
vector 228 Net1Test.U10.wlan[0].radio receptionState:vector ETV
attr interpolationmode sample-hold
attr recordingmode vector
attr source receptionStateChanged
attr title "Radio reception state"
vector 229 Net1Test.U10.wlan[0].mac.dcf.channelAccess.contention stateChanged:vector ETV
attr enum IDLE,DEFER,IFS_AND_BACKOFF
attr interpolationmode none
attr recordingmode vector
attr title "contention state changed"
attr type enum
vector 230 Net1Test.U11.wlan[0].radio receptionState:vector ETV
attr interpolationmode sample-hold
attr recordingmode vector
attr source receptionStateChanged
attr title "Radio reception state"
vector 231 Net1Test.U11.wlan[0].mac.dcf.channelAccess.contention stateChanged:vector ETV
attr enum IDLE,DEFER,IFS_AND_BACKOFF
attr interpolationmode none
attr recordingmode vector
attr title "contention state changed"
attr type enum
vector 232 Net1Test.U12.wlan[0].radio receptionState:vector ETV
attr interpolationmode sample-hold
attr recordingmode vector
attr source receptionStateChanged
attr title "Radio reception state"
vector 233 Net1Test.U12.wlan[0].mac.dcf.channelAccess.contention stateChanged:vector ETV
attr enum IDLE,DEFER,IFS_AND_BACKOFF
attr interpolationmode none
attr recordingmode vector
attr title "contention state changed"
attr type enum
vector 234 Net1Test.U13.wlan[0].radio receptionState:vector ETV
attr interpolationmode sample-hold
attr recordingmode vector
attr source receptionStateChanged
attr title "Radio reception state"
vector 235 Net1Test.U13.wlan[0].mac.dcf.channelAccess.contention stateChanged:vector ETV
attr enum IDLE,DEFER,IFS_AND_BACKOFF
attr interpolationmode none
attr recordingmode vector
attr title "contention state changed"
attr type enum
vector 236 Net1Test.U14.wlan[0].radio receptionState:vector ETV
attr interpolationmode sample-hold
attr recordingmode vector
attr source receptionStateChanged
attr title "Radio reception state"
vector 237 Net1Test.U14.wlan[0].mac.dcf.channelAccess.contention stateChanged:vector ETV
attr enum IDLE,DEFER,IFS_AND_BACKOFF
attr interpolationmode none
attr recordingmode vector
attr title "contention state changed"
attr type enum
vector 238 Net1Test.U15.wlan[0].radio receptionState:vector ETV
attr interpolationmode sample-hold
attr recordingmode vector
attr source receptionStateChanged
attr title "Radio reception state"
vector 239 Net1Test.U15.wlan[0].mac.dcf.channelAccess.contention stateChanged:vector ETV
attr enum IDLE,DEFER,IFS_AND_BACKOFF
attr interpolationmode none
attr recordingmode vector
attr title "contention state changed"
attr type enum
vector 240 Net1Test.U16.wlan[0].radio receptionState:vector ETV
attr interpolationmode sample-hold
attr recordingmode vector
attr source receptionStateChanged
attr title "Radio reception state"
vector 241 Net1Test.U16.wlan[0].mac.dcf.channelAccess.contention stateChanged:vector ETV
attr enum IDLE,DEFER,IFS_AND_BACKOFF
attr interpolationmode none
attr recordingmode vector
attr title "contention state changed"
attr type enum
vector 242 Net1Test.U17.wlan[0].radio receptionState:vector ETV
attr interpolationmode sample-hold
attr recordingmode vector
attr source receptionStateChanged
attr title "Radio reception state"
vector 243 Net1Test.U17.wlan[0].mac.dcf.channelAccess.contention stateChanged:vector ETV
attr enum IDLE,DEFER,IFS_AND_BACKOFF
attr interpolationmode none
attr recordingmode vector
attr title "contention state changed"
attr type enum
vector 244 Net1Test.U18.wlan[0].radio receptionState:vector ETV
attr interpolationmode sample-hold
attr recordingmode vector
attr source receptionStateChanged
attr title "Radio reception state"
vector 245 Net1Test.U18.wlan[0].mac.dcf.channelAccess.contention stateChanged:vector ETV
attr enum IDLE,DEFER,IFS_AND_BACKOFF
attr interpolationmode none
attr recordingmode vector
attr title "contention state changed"
attr type enum
vector 246 Net1Test.U19.wlan[0].radio receptionState:vector ETV
attr interpolationmode sample-hold
attr recordingmode vector
attr source receptionStateChanged
attr title "Radio reception state"
vector 247 Net1Test.U19.wlan[0].mac.dcf.channelAccess.contention stateChanged:vector ETV
attr enum IDLE,DEFER,IFS_AND_BACKOFF
attr interpolationmode none
attr recordingmode vector
attr title "contention state changed"
attr type enum
vector 248 Net1Test.U20.wlan[0].radio receptionState:vector ETV
attr interpolationmode sample-hold
attr recordingmode vector
attr source receptionStateChanged
attr title "Radio reception state"
vector 249 Net1Test.U20.wlan[0].mac.dcf.channelAccess.contention stateChanged:vector ETV
attr enum IDLE,DEFER,IFS_AND_BACKOFF
attr interpolationmode none
attr recordingmode vector
attr title "contention state changed"
attr type enum
vector 250 Net1Test.U21.wlan[0].radio receptionState:vector ETV
attr interpolationmode sample-hold
attr recordingmode vector
attr source receptionStateChanged
attr title "Radio reception state"
vector 251 Net1Test.U21.wlan[0].mac.dcf.channelAccess.contention stateChanged:vector ETV
attr enum IDLE,DEFER,IFS_AND_BACKOFF
attr interpolationmode none
attr recordingmode vector
attr title "contention state changed"
attr type enum
vector 252 Net1Test.U22.wlan[0].radio receptionState:vector ETV
attr interpolationmode sample-hold
attr recordingmode vector
attr source receptionStateChanged
attr title "Radio reception state"
vector 253 Net1Test.U22.wlan[0].mac.dcf.channelAccess.contention stateChanged:vector ETV
attr enum IDLE,DEFER,IFS_AND_BACKOFF
attr interpolationmode none
attr recordingmode vector
attr title "contention state changed"
attr type enum
vector 254 Net1Test.U23.wlan[0].radio receptionState:vector ETV
attr interpolationmode sample-hold
attr recordingmode vector
attr source receptionStateChanged
attr title "Radio reception state"
vector 255 Net1Test.U23.wlan[0].mac.dcf.channelAccess.contention stateChanged:vector ETV
attr enum IDLE,DEFER,IFS_AND_BACKOFF
attr interpolationmode none
attr recordingmode vector
attr title "contention state changed"
attr type enum
vector 256 Net1Test.U24.wlan[0].radio receptionState:vector ETV
attr interpolationmode sample-hold
attr recordingmode vector
attr source receptionStateChanged
attr title "Radio reception state"
vector 257 Net1Test.U24.wlan[0].mac.dcf.channelAccess.contention stateChanged:vector ETV
attr enum IDLE,DEFER,IFS_AND_BACKOFF
attr interpolationmode none
attr recordingmode vector
attr title "contention state changed"
attr type enum
vector 258 Net1Test.U25.wlan[0].radio receptionState:vector ETV
attr interpolationmode sample-hold
attr recordingmode vector
attr source receptionStateChanged
attr title "Radio reception state"
vector 259 Net1Test.U25.wlan[0].mac.dcf.channelAccess.contention stateChanged:vector ETV
attr enum IDLE,DEFER,IFS_AND_BACKOFF
attr interpolationmode none
attr recordingmode vector
attr title "contention state changed"
attr type enum
vector 260 Net1Test.Source.wlan[0].mac.dcf.recoveryProcedure contentionWindowChanged:vector ETV
attr interpolationmode sample-hold
attr recordingmode vector
attr title "contention window"
vector 261 Net1Test.Destination.wlan[0].mac.dcf.recoveryProcedure contentionWindowChanged:vector ETV
attr interpolationmode sample-hold
attr recordingmode vector
attr title "contention window"
vector 262 Net1Test.U2.wlan[0].mac.dcf.recoveryProcedure contentionWindowChanged:vector ETV
attr interpolationmode sample-hold
attr recordingmode vector
attr title "contention window"
vector 263 Net1Test.U3.wlan[0].mac.dcf.recoveryProcedure contentionWindowChanged:vector ETV
attr interpolationmode sample-hold
attr recordingmode vector
attr title "contention window"
vector 264 Net1Test.U4.wlan[0].mac.dcf.recoveryProcedure contentionWindowChanged:vector ETV
attr interpolationmode sample-hold
attr recordingmode vector
attr title "contention window"
vector 265 Net1Test.U5.wlan[0].mac.dcf.recoveryProcedure contentionWindowChanged:vector ETV
attr interpolationmode sample-hold
attr recordingmode vector
attr title "contention window"
vector 266 Net1Test.U6.wlan[0].mac.dcf.recoveryProcedure contentionWindowChanged:vector ETV
attr interpolationmode sample-hold
attr recordingmode vector
attr title "contention window"
vector 267 Net1Test.U7.wlan[0].mac.dcf.recoveryProcedure contentionWindowChanged:vector ETV
attr interpolationmode sample-hold
attr recordingmode vector
attr title "contention window"
vector 268 Net1Test.U8.wlan[0].mac.dcf.recoveryProcedure contentionWindowChanged:vector ETV
attr interpolationmode sample-hold
attr recordingmode vector
attr title "contention window"
vector 269 Net1Test.U9.wlan[0].mac.dcf.recoveryProcedure contentionWindowChanged:vector ETV
attr interpolationmode sample-hold
attr recordingmode vector
attr title "contention window"
vector 270 Net1Test.U10.wlan[0].mac.dcf.recoveryProcedure contentionWindowChanged:vector ETV
attr interpolationmode sample-hold
attr recordingmode vector
attr title "contention window"
vector 271 Net1Test.U11.wlan[0].mac.dcf.recoveryProcedure contentionWindowChanged:vector ETV
attr interpolationmode sample-hold
attr recordingmode vector
attr title "contention window"
vector 272 Net1Test.U12.wlan[0].mac.dcf.recoveryProcedure contentionWindowChanged:vector ETV
attr interpolationmode sample-hold
attr recordingmode vector
attr title "contention window"
vector 273 Net1Test.U13.wlan[0].mac.dcf.recoveryProcedure contentionWindowChanged:vector ETV
attr interpolationmode sample-hold
attr recordingmode vector
attr title "contention window"
vector 274 Net1Test.U14.wlan[0].mac.dcf.recoveryProcedure contentionWindowChanged:vector ETV
attr interpolationmode sample-hold
attr recordingmode vector
attr title "contention window"
vector 275 Net1Test.U15.wlan[0].mac.dcf.recoveryProcedure contentionWindowChanged:vector ETV
attr interpolationmode sample-hold
attr recordingmode vector
attr title "contention window"
vector 276 Net1Test.U16.wlan[0].mac.dcf.recoveryProcedure contentionWindowChanged:vector ETV
attr interpolationmode sample-hold
attr recordingmode vector
attr title "contention window"
vector 277 Net1Test.U17.wlan[0].mac.dcf.recoveryProcedure contentionWindowChanged:vector ETV
attr interpolationmode sample-hold
attr recordingmode vector
attr title "contention window"
vector 278 Net1Test.U18.wlan[0].mac.dcf.recoveryProcedure contentionWindowChanged:vector ETV
attr interpolationmode sample-hold
attr recordingmode vector
attr title "contention window"
vector 279 Net1Test.U19.wlan[0].mac.dcf.recoveryProcedure contentionWindowChanged:vector ETV
attr interpolationmode sample-hold
attr recordingmode vector
attr title "contention window"
vector 280 Net1Test.U20.wlan[0].mac.dcf.recoveryProcedure contentionWindowChanged:vector ETV
attr interpolationmode sample-hold
attr recordingmode vector
attr title "contention window"
vector 281 Net1Test.U21.wlan[0].mac.dcf.recoveryProcedure contentionWindowChanged:vector ETV
attr interpolationmode sample-hold
attr recordingmode vector
attr title "contention window"
vector 282 Net1Test.U22.wlan[0].mac.dcf.recoveryProcedure contentionWindowChanged:vector ETV
attr interpolationmode sample-hold
attr recordingmode vector
attr title "contention window"
vector 283 Net1Test.U23.wlan[0].mac.dcf.recoveryProcedure contentionWindowChanged:vector ETV
attr interpolationmode sample-hold
attr recordingmode vector
attr title "contention window"
vector 284 Net1Test.U24.wlan[0].mac.dcf.recoveryProcedure contentionWindowChanged:vector ETV
attr interpolationmode sample-hold
attr recordingmode vector
attr title "contention window"
vector 285 Net1Test.U25.wlan[0].mac.dcf.recoveryProcedure contentionWindowChanged:vector ETV
attr interpolationmode sample-hold
attr recordingmode vector
attr title "contention window"
vector 286 Net1Test.Source.app[0] packetSent:vector(packetBytes) ETV
attr interpolationmode none
attr recordingmode vector(packetBytes)
attr source packetSent
attr title "packets sent, packetBytes"
vector 287 Net1Test.Source.udp packetSent:vector(packetBytes) ETV
attr interpolationmode none
attr recordingmode vector(packetBytes)
attr source packetSent
attr title "packets sent, packetBytes"
vector 288 Net1Test.Source.wlan[0].mac packetReceivedFromUpper:vector(packetBytes) ETV
attr interpolationmode none
attr recordingmode vector(packetBytes)
attr title "packets received from upper layer, packetBytes"
vector 289 Net1Test.Source.wlan[0].mac.dcf.channelAccess.pendingQueue incomingPacketLengths:vector ETV
attr interpolationmode none
attr recordingmode vector
attr source packetLength(packetPushStarted)
attr title "incoming packet lengths"
attr unit b
vector 290 Net1Test.Source.wlan[0].mac.dcf.channelAccess.pendingQueue incomingDataRate:vector ETV
attr interpolationmode linear
attr recordingmode vector
attr source throughput(packetPushStarted)
attr title "incoming datarate"
attr unit bps
vector 291 Net1Test.Source.wlan[0].mac.dcf.channelAccess.pendingQueue queueLength:vector ETV
attr autoWarmupFilter false
attr interpolationmode sample-hold
attr recordingmode vector
attr source "warmup(atomic(constant0(packetPushEnded) + count(packetPushStarted) - count(packetPulled) - count(packetRemoved) - count(packetDropped)))"
attr title "queue length"
attr unit pk
vector 292 Net1Test.Source.wlan[0].mac.dcf.channelAccess.pendingQueue queueBitLength:vector ETV
attr autoWarmupFilter false
attr interpolationmode sample-hold
attr recordingmode vector
attr source "warmup(atomic(constant0(packetPushEnded) + sum(packetLength(packetPushStarted)) - sum(packetLength(packetPulled)) - sum(packetLength(packetRemoved)) - sum(packetLength(packetDropped))))"
attr title "queue bit length"
attr unit b
vector 293 Net1Test.Source.wlan[0].mac.dcf.channelAccess.contention backoffPeriodGenerated:vector ETV
attr interpolationmode none
attr recordingmode vector
attr title "backoff periods"
vector 294 Net1Test.Source.wlan[0].mac.dcf.channelAccess.pendingQueue queueingTime:vector ETV
attr interpolationmode none
attr recordingmode vector
attr source queueingTime(packetPulled)
attr title "queueing times"
attr unit s
vector 295 Net1Test.Source.wlan[0].mac.dcf.channelAccess.pendingQueue outgoingPacketLengths:vector ETV
attr interpolationmode none
attr recordingmode vector
attr source packetLength(packetPulled)
attr title "outgoing packet lengths"
attr unit b
vector 296 Net1Test.Source.wlan[0].mac.dcf.channelAccess.pendingQueue outgoingDataRate:vector ETV
attr interpolationmode linear
attr recordingmode vector
attr source throughput(packetPulled)
attr title "outgoing datarate"
attr unit bps
vector 297 Net1Test.Source.wlan[0].mac.dcf datarateSelected:vector ETV
attr interpolationmode none
attr recordingmode vector
attr title "datarates selected"
vector 298 Net1Test.Source.wlan[0].mac packetSentToLower:vector(packetBytes) ETV
attr interpolationmode none
attr recordingmode vector(packetBytes)
attr title "packets sent to lower layer, packetBytes"
vector 299 Net1Test.Source.wlan[0].radio transmissionState:vector ETV
attr interpolationmode sample-hold
attr recordingmode vector
attr source transmissionStateChanged
attr title "Radio transmission state"
vector 300 Net1Test.Source.wlan[0].mac.dcf packetSentToPeer:vector(packetBytes) ETV
attr interpolationmode none
attr recordingmode vector(packetBytes)
attr title "packets sent, packetBytes"
vector 301 Net1Test.Source.wlan[0].mac.dcf packetSentToPeerMulticast:vector(packetBytes) ETV
attr interpolationmode none
attr recordingmode vector(packetBytes)
attr source ieee80211Multicast(packetSentToPeer)
attr title "packets sent: multicast, packetBytes"
vector 302 Net1Test.Source.wlan[0].mac.dcf packetSentToPeerBroadcast:vector(packetBytes) ETV
attr interpolationmode none
attr recordingmode vector(packetBytes)
attr source ieee80211Broadcast(packetSentToPeer)
attr title "packets sent: broadcast , packetBytes"
vector 303 Net1Test.Source.wlan[0].mac.dcf packetSentToPeerWithoutRetry:vector(packetBytes) ETV
attr interpolationmode none
attr recordingmode vector(packetBytes)
attr source ieee80211NotRetry(packetSentToPeer)
attr title "packets sent: without retry, packetBytes"
vector 304 Net1Test.Source.wlan[0].mac.dcf.channelAccess.inProgressFrames queueingTime:vector ETV
attr interpolationmode none
attr recordingmode vector
attr source queueingTime(packetDequeued)
attr title "queueing times"
vector 305 Net1Test.U13.wlan[0].mac packetReceivedFromLower:vector(packetBytes) ETV
attr interpolationmode none
attr recordingmode vector(packetBytes)
attr title "packets received from lower layer, packetBytes"
vector 306 Net1Test.U13.wlan[0].mac.dcf packetReceivedFromPeer:vector(packetBytes) ETV
attr interpolationmode none
attr recordingmode vector(packetBytes)
attr title "packets received, packetBytes"
vector 307 Net1Test.U13.wlan[0].mac.dcf packetReceivedFromPeerMulticast:vector(packetBytes) ETV
attr interpolationmode none
attr recordingmode vector(packetBytes)
attr source ieee80211Multicast(packetReceivedFromPeer)
attr title "packets received: multicast, packetBytes"
vector 308 Net1Test.U13.wlan[0].mac.dcf packetReceivedFromPeerBroadcast:vector(packetBytes) ETV
attr interpolationmode none
attr recordingmode vector(packetBytes)
attr source ieee80211Broadcast(packetReceivedFromPeer)
attr title "packets received: broadcast, packetBytes"
vector 309 Net1Test.U13.wlan[0].mac.dcf packetReceivedFromPeerWithoutRetry:vector(packetBytes) ETV
attr interpolationmode none
attr recordingmode vector(packetBytes)
attr source ieee80211NotRetry(packetReceivedFromPeer)
attr title "packets received: without retry, packetBytes"
vector 310 Net1Test.U13.wlan[0].mac packetSentToUpper:vector(packetBytes) ETV
attr interpolationmode none
attr recordingmode vector(packetBytes)
attr title "packets sent to upper layer, packetBytes"
vector 311 Net1Test.U13.udp packetReceived:vector(packetBytes) ETV
attr interpolationmode none
attr recordingmode vector(packetBytes)
attr source packetReceived
attr title "packets received, packetBytes"
vector 312 Net1Test.U12.wlan[0].mac packetReceivedFromLower:vector(packetBytes) ETV
attr interpolationmode none
attr recordingmode vector(packetBytes)
attr title "packets received from lower layer, packetBytes"
vector 313 Net1Test.U12.wlan[0].mac.dcf packetReceivedFromPeer:vector(packetBytes) ETV
attr interpolationmode none
attr recordingmode vector(packetBytes)
attr title "packets received, packetBytes"
vector 314 Net1Test.U12.wlan[0].mac.dcf packetReceivedFromPeerMulticast:vector(packetBytes) ETV
attr interpolationmode none
attr recordingmode vector(packetBytes)
attr source ieee80211Multicast(packetReceivedFromPeer)
attr title "packets received: multicast, packetBytes"
vector 315 Net1Test.U12.wlan[0].mac.dcf packetReceivedFromPeerBroadcast:vector(packetBytes) ETV
attr interpolationmode none
attr recordingmode vector(packetBytes)
attr source ieee80211Broadcast(packetReceivedFromPeer)
attr title "packets received: broadcast, packetBytes"
vector 316 Net1Test.U12.wlan[0].mac.dcf packetReceivedFromPeerWithoutRetry:vector(packetBytes) ETV
attr interpolationmode none
attr recordingmode vector(packetBytes)
attr source ieee80211NotRetry(packetReceivedFromPeer)
attr title "packets received: without retry, packetBytes"
vector 317 Net1Test.U12.wlan[0].mac packetSentToUpper:vector(packetBytes) ETV
attr interpolationmode none
attr recordingmode vector(packetBytes)
attr title "packets sent to upper layer, packetBytes"
vector 318 Net1Test.U12.udp packetReceived:vector(packetBytes) ETV
attr interpolationmode none
attr recordingmode vector(packetBytes)
attr source packetReceived
attr title "packets received, packetBytes"
vector 319 Net1Test.U4.wlan[0].mac packetReceivedFromLower:vector(packetBytes) ETV
attr interpolationmode none
attr recordingmode vector(packetBytes)
attr title "packets received from lower layer, packetBytes"
vector 320 Net1Test.U4.wlan[0].mac.dcf packetReceivedFromPeer:vector(packetBytes) ETV
attr interpolationmode none
attr recordingmode vector(packetBytes)
attr title "packets received, packetBytes"
vector 321 Net1Test.U4.wlan[0].mac.dcf packetReceivedFromPeerMulticast:vector(packetBytes) ETV
attr interpolationmode none
attr recordingmode vector(packetBytes)
attr source ieee80211Multicast(packetReceivedFromPeer)
attr title "packets received: multicast, packetBytes"
vector 322 Net1Test.U4.wlan[0].mac.dcf packetReceivedFromPeerBroadcast:vector(packetBytes) ETV
attr interpolationmode none
attr recordingmode vector(packetBytes)
attr source ieee80211Broadcast(packetReceivedFromPeer)
attr title "packets received: broadcast, packetBytes"
vector 323 Net1Test.U4.wlan[0].mac.dcf packetReceivedFromPeerWithoutRetry:vector(packetBytes) ETV
attr interpolationmode none
attr recordingmode vector(packetBytes)
attr source ieee80211NotRetry(packetReceivedFromPeer)
attr title "packets received: without retry, packetBytes"
vector 324 Net1Test.U4.wlan[0].mac packetSentToUpper:vector(packetBytes) ETV
attr interpolationmode none
attr recordingmode vector(packetBytes)
attr title "packets sent to upper layer, packetBytes"
vector 325 Net1Test.U4.udp packetReceived:vector(packetBytes) ETV
attr interpolationmode none
attr recordingmode vector(packetBytes)
attr source packetReceived
attr title "packets received, packetBytes"
vector 326 Net1Test.U23.wlan[0].mac packetReceivedFromLower:vector(packetBytes) ETV
attr interpolationmode none
attr recordingmode vector(packetBytes)
attr title "packets received from lower layer, packetBytes"
vector 327 Net1Test.U23.wlan[0].mac.dcf packetReceivedFromPeer:vector(packetBytes) ETV
attr interpolationmode none
attr recordingmode vector(packetBytes)
attr title "packets received, packetBytes"
vector 328 Net1Test.U23.wlan[0].mac.dcf packetReceivedFromPeerMulticast:vector(packetBytes) ETV
attr interpolationmode none
attr recordingmode vector(packetBytes)
attr source ieee80211Multicast(packetReceivedFromPeer)
attr title "packets received: multicast, packetBytes"
vector 329 Net1Test.U23.wlan[0].mac.dcf packetReceivedFromPeerBroadcast:vector(packetBytes) ETV
attr interpolationmode none
attr recordingmode vector(packetBytes)
attr source ieee80211Broadcast(packetReceivedFromPeer)
attr title "packets received: broadcast, packetBytes"
vector 330 Net1Test.U23.wlan[0].mac.dcf packetReceivedFromPeerWithoutRetry:vector(packetBytes) ETV
attr interpolationmode none
attr recordingmode vector(packetBytes)
attr source ieee80211NotRetry(packetReceivedFromPeer)
attr title "packets received: without retry, packetBytes"
vector 331 Net1Test.U23.wlan[0].mac packetSentToUpper:vector(packetBytes) ETV
attr interpolationmode none
attr recordingmode vector(packetBytes)
attr title "packets sent to upper layer, packetBytes"
vector 332 Net1Test.U23.udp packetReceived:vector(packetBytes) ETV
attr interpolationmode none
attr recordingmode vector(packetBytes)
attr source packetReceived
attr title "packets received, packetBytes"
vector 333 Net1Test.U7.wlan[0].mac packetReceivedFromLower:vector(packetBytes) ETV
attr interpolationmode none
attr recordingmode vector(packetBytes)
attr title "packets received from lower layer, packetBytes"
vector 334 Net1Test.U7.wlan[0].mac.dcf packetReceivedFromPeer:vector(packetBytes) ETV
attr interpolationmode none
attr recordingmode vector(packetBytes)
attr title "packets received, packetBytes"
vector 335 Net1Test.U7.wlan[0].mac.dcf packetReceivedFromPeerMulticast:vector(packetBytes) ETV
attr interpolationmode none
attr recordingmode vector(packetBytes)
attr source ieee80211Multicast(packetReceivedFromPeer)
attr title "packets received: multicast, packetBytes"
vector 336 Net1Test.U7.wlan[0].mac.dcf packetReceivedFromPeerBroadcast:vector(packetBytes) ETV
attr interpolationmode none
attr recordingmode vector(packetBytes)
attr source ieee80211Broadcast(packetReceivedFromPeer)
attr title "packets received: broadcast, packetBytes"
vector 337 Net1Test.U7.wlan[0].mac.dcf packetReceivedFromPeerWithoutRetry:vector(packetBytes) ETV
attr interpolationmode none
attr recordingmode vector(packetBytes)
attr source ieee80211NotRetry(packetReceivedFromPeer)
attr title "packets received: without retry, packetBytes"
vector 338 Net1Test.U7.wlan[0].mac packetSentToUpper:vector(packetBytes) ETV
attr interpolationmode none
attr recordingmode vector(packetBytes)
attr title "packets sent to upper layer, packetBytes"
vector 339 Net1Test.U7.udp packetReceived:vector(packetBytes) ETV
attr interpolationmode none
attr recordingmode vector(packetBytes)
attr source packetReceived
attr title "packets received, packetBytes"
vector 340 Net1Test.U23.udp packetSent:vector(packetBytes) ETV
attr interpolationmode none
attr recordingmode vector(packetBytes)
attr source packetSent
attr title "packets sent, packetBytes"
vector 341 Net1Test.U23.wlan[0].mac packetReceivedFromUpper:vector(packetBytes) ETV
attr interpolationmode none
attr recordingmode vector(packetBytes)
attr title "packets received from upper layer, packetBytes"
vector 342 Net1Test.U23.wlan[0].mac.dcf.channelAccess.pendingQueue incomingPacketLengths:vector ETV
attr interpolationmode none
attr recordingmode vector
attr source packetLength(packetPushStarted)
attr title "incoming packet lengths"
attr unit b
vector 343 Net1Test.U23.wlan[0].mac.dcf.channelAccess.pendingQueue incomingDataRate:vector ETV
[...]
912	10999413 13947 4008 283033 2.809672193835 120.751726711141 475 0 31 7066 141108
913	11013360 16934 4010 283122 2.809672193835 120.752420711141 475 0 0.000714 0.18483845031 8.6858869509212e-05
914	11030294 15042 4010 283122 2.809672193835 120.752420711141 475 512 8512 3972288 33767303168
915	11045336 23109 4010 283322 0.1 121 1210 0 85120 39722880 3377390796800
916	11068445 33734 4010 283122 2.809672193835 120.752420711141 945 24000000 24000000 22680000000 5.4432e+17
917	11102179 28997 4010 283122 2.809672193835 120.752420711141 945 14 1064 503116 527706232
918	11131176 108480 4011 283151 2.809672193835 120.752802711141 3780 0 2 3780 5670
919	11239656 28997 4038 283150 2.809730193835 120.752802711141 945 14 1064 503116 527706232
920	11268653 166 4038 20690 2.809730193835 4.458385892577 6 64 88 480 39168
921	11268819 166 4038 20690 2.809730193835 4.458385892577 6 64 88 480 39168
922	11268985 28997 4038 283150 2.809730193835 120.752802711141 945 14 1064 503116 527706232
923	11297982 19755 4038 283232 2.809730193835 120.752848332387 475 5e-05 0.00047630826 0.200278321826 8.5477783074123e-05
924	11317737 82 4135 16507 2.809913386822 4.172876355596 3 32 32 96 3072
925	11317819 82 4138 16510 2.809913386822 4.172876355596 3 60 60 180 10800
926	11317901 85 4138 16510 2.809913386822 4.172876355596 3 704 704 2112 1486848
927	11317986 21584 4138 283322 0.1 121 1210 0 7040 21120 148684800
928	11339570 156 4138 16820 2.809913386822 4.1738240894 6 0 1 3 3
929	11339726 162 4138 16820 2.809913386822 4.1738240894 6 0 704 2112 1486848
930	11339888 82 4138 16510 2.809913386822 4.172876355596 3 24 29 82 2258
931	11339970 90 4140 16820 2.809913386822 4.1738240894 3 0 0.000947733804 0.000947733804 8.9819936324431e-07
932	11340060 83 4140 16820 2.809913386822 4.1738240894 3 704 704 2112 1486848
933	11340143 21584 4140 283322 0.1 121 1210 0 7040 21120 148684800
934	11361727 98 4140 16820 2.809913386822 4.1738240894 3 24000000 24000000 72000000 1.728e+15
935	11361825 80 4140 16820 2.809913386822 4.1738240894 3 88 88 264 23232
936	11361905 308 4141 16878 2.809913386822 4.1738820894 12 0 2 12 18
937	11362213 80 4214 16877 2.809971386822 4.1738820894 3 88 88 264 23232
938	11362293 80 4214 16877 2.809971386822 4.1738820894 3 88 88 264 23232
939	11362373 80 4214 16877 2.809971386822 4.1738820894 3 88 88 264 23232
940	11362453 80 4214 16877 2.809971386822 4.1738820894 3 88 88 264 23232
941	11362533 95 4214 16877 2.809971386822 4.1738820894 3 5.8e-05 5.8e-05 0.000174 1.0092e-08
942	11362628 82 4253 16230 2.811041821086 4.172230546584 3 32 32 96 3072
943	11362710 82 4256 16233 2.811041821086 4.172230546584 3 60 60 180 10800
944	11362792 85 4256 16233 2.811041821086 4.172230546584 3 704 704 2112 1486848
945	11362877 620 4256 16233 0.1 4.1 41 0 7040 14080 99123200
946	11363497 158 4256 16449 2.811041821086 4.172821666141 6 0 1 3 3
947	11363655 164 4256 16449 2.811041821086 4.172821666141 6 0 704 2112 1486848
948	11363819 81 4256 16233 2.811041821086 4.172230546584 3 3 16 30 386
949	11363900 92 4258 16449 2.811041821086 4.172821666141 3 0 0.000591119557 0.000591119557 3.4942233066788e-07
950	11363992 85 4258 16449 2.811041821086 4.172821666141 3 704 704 2112 1486848
951	11364077 620 4258 16449 0.1 4.1 41 0 7040 14080 99123200
952	11364697 100 4258 16449 2.811041821086 4.172821666141 3 24000000 24000000 72000000 1.728e+15
953	11364797 82 4258 16449 2.811041821086 4.172821666141 3 88 88 264 23232
954	11364879 316 4259 16512 2.811041821086 4.172879666141 12 0 2 12 18
955	11365195 82 4320 16511 2.811099821086 4.172879666141 3 88 88 264 23232
956	11365277 82 4320 16511 2.811099821086 4.172879666141 3 88 88 264 23232
957	11365359 82 4320 16511 2.811099821086 4.172879666141 3 88 88 264 23232
958	11365441 82 4320 16511 2.811099821086 4.172879666141 3 88 88 264 23232
959	11365523 97 4320 16511 2.811099821086 4.172879666141 3 5.8e-05 5.8e-05 0.000174 1.0092e-08
960	11365620 15333 4333 283226 2.811100401488 120.752847978942 518 14 1064 24864 18290392
961	11380953 317 4333 16882 2.811100401488 4.173882539712 11 64 1064 7776 7952000
962	11381270 110 4388 16167 2.811943787019 4.171897574061 4 32 32 128 4096
963	11381380 110 4391 16170 2.811943787019 4.171897574061 4 60 60 240 14400
964	11381490 114 4391 16170 2.811943787019 4.171897574061 4 704 704 2816 1982464
965	11381604 21587 4391 283322 0.1 121 1210 0 7040 28160 198246400
966	11403191 212 4391 16201 2.811943787019 4.172189236239 8 0 1 4 4
967	11403403 220 4391 16201 2.811943787019 4.172189236239 8 0 704 2816 1982464
968	11403623 109 4391 16170 2.811943787019 4.171897574061 4 7 31 79 1855
969	11403732 145 4393 16201 2.811943787019 4.172189236239 4 0 0.000291662178 0.000597987721 1.373119344825e-07
970	11403877 114 4393 16201 2.811943787019 4.172189236239 4 704 704 2816 1982464
971	11403991 21587 4393 283322 0.1 121 1210 0 7040 28160 198246400
972	11425578 134 4393 16201 2.811943787019 4.172189236239 4 24000000 24000000 96000000 2.304e+15
973	11425712 110 4393 16201 2.811943787019 4.172189236239 4 88 88 352 30976
974	11425822 424 4394 16267 2.811943787019 4.172247236239 16 0 2 16 24
975	11426246 110 4421 16266 2.812001787019 4.172247236239 4 88 88 352 30976
976	11426356 110 4421 16266 2.812001787019 4.172247236239 4 88 88 352 30976
977	11426466 110 4421 16266 2.812001787019 4.172247236239 4 88 88 352 30976
978	11426576 110 4421 16266 2.812001787019 4.172247236239 4 88 88 352 30976
979	11426686 130 4421 16266 2.812001787019 4.172247236239 4 5.8e-05 5.8e-05 0.000232 1.3456e-08
980	11426816 27 6948 6948 3.806890180069 3.806890180069 1 28 28 28 784
981	11426843 966 7009 19988 3.807470180069 4.25342412099 34 14 1064 18586 19273444
982	11427809 45355 7009 283217 3.807470180069 120.752847085685 1482 0 4.4e-05 0.021736 9.56384e-07
983	11473164 88346 7012 283219 3.807470532717 120.752847156983 2883 0 4.4e-05 0.042284 1.860496e-06
984	11561510 58226 7012 283157 3.807470532717 120.752803156983 1899 14 1064 1016116 1066661144
985	11619736 58198 7012 283157 3.807470532717 120.752803156983 1898 14 1064 1016032 1066654088
986	11677934 58639 7012 283157 3.807470532717 120.752803156983 1913 14 1064 1029060 1080261784
987	11736573 58198 7012 283157 3.807470532717 120.752803156983 1898 14 1064 1016032 1066654088
988	11794771 45703 7014 283216 3.807470554613 120.752846711141 1494 0 4.4e-05 0.021912 9.64128e-07
989	11840474 15717 7014 282965 3.807470554613 120.751154711141 532 14 1064 29038 22798092
990	11856191 15717 7014 282965 3.807470554613 120.751154711141 532 14 1064 29038 22798092
991	11871908 15717 7014 282965 3.807470554613 120.751154711141 532 14 1064 29038 22798092
992	11887625 1461 7016 20535 3.807470753615 4.454888216957 51 0 4.4e-05 0.000748 3.2912e-08
993	11889086 15016 7016 283226 3.807470753615 120.752847978942 507 14 1064 17088 10338392
994	11904102 15016 7016 283226 3.807470753615 120.752847978942 507 14 1064 17088 10338392
995	11919118 15016 7016 283226 3.807470753615 120.752847978942 507 14 1064 17088 10338392
996	11934134 89602 7018 283220 3.8074707556 120.752847236714 2925 0 4.4e-05 0.0429 1.8876e-06
997	12023736 59737 7018 283159 3.8074707556 120.752803236714 1951 14 1064 1037224 1088216576
998	12083473 59737 7018 283159 3.8074707556 120.752803236714 1951 14 1064 1037224 1088216576
999	12143210 60234 7018 283159 3.8074707556 120.752803236714 1968 14 1064 1051334 1102957252
1000	12203444 61688 7018 283159 3.8074707556 120.752803236714 1951 14 1064 1037224 1088216576
1001	12265132 3300 7020 20842 3.807470773373 4.458670906458 111 0 4.4e-05 0.001628 7.1632e-08
1002	12268432 2210 7020 21129 3.807470773373 4.459389214718 75 14 1064 31000 31757800
1003	12270642 2210 7020 21129 3.807470773373 4.459389214718 75 14 1064 31000 31757800
1004	12272852 2210 7020 21129 3.807470773373 4.459389214718 75 14 1064 31000 31757800
1005	12275062 15689 7022 283165 3.807470864079 120.752803521764 481 14 1064 505584 537754576
1006	12290751 46119 7028 283218 3.807470902295 120.752847146771 1458 0 4.4e-05 0.021384 9.40896e-07
1007	12336870 45252 7028 283230 3.807470902295 120.752848290917 1445 14 1064 519710 538005260
1008	12382122 45252 7028 283230 3.807470902295 120.752848290917 1445 14 1064 519710 538005260
1009	12427374 45252 7028 283230 3.807470902295 120.752848290917 1445 14 1064 519710 538005260
1010	12472626 1164 7030 20064 3.807470970616 4.253468911537 39 0 4.4e-05 0.000572 2.5168e-08
1011	12473790 739 7030 20009 3.807470970616 4.253424911537 25 14 1064 10060 10216480
1012	12474529 739 7030 20009 3.807470970616 4.253424911537 25 14 1064 10060 10216480
1013	12475268 1097 7030 20009 3.807470970616 4.253424911537 37 14 1064 17874 18172324
1014	12476365 739 7030 20009 3.807470970616 4.253424911537 25 14 1064 10060 10216480
1015	12477104 14739 7082 283223 3.807514864079 120.752847521764 481 14 84 7014 121716
1016	12491843 734 7089 20068 3.807515548089 4.25346948901 25 14 1064 11040 11341520
1017	12492577 801 7144 21256 3.807682864079 4.459761903144 27 0 4.4e-05 0.000396 1.7424e-08
1018	12493378 28 7248 7248 3.808789861502 3.808789861502 1 28 28 28 784
1019	12493406 56 7285 20624 3.80884021415 4.458126338419 2 28 28 56 1568
1020	12493462 823 7362 21114 3.80900021415 4.459388646679 28 14 1064 11062 11339148
1021	12494285 91327 7375 283222 3.809000736058 120.752847419429 2883 0 4.4e-05 0.042284 1.860496e-06
1022	12585612 31251 7375 283163 3.809000736058 120.752803419429 989 14 1064 523576 549208384
1023	12616863 31251 7375 283163 3.809000736058 120.752803419429 989 14 1064 523576 549208384
1024	12648114 31251 7375 283163 3.809000736058 120.752803419429 989 14 1064 523576 549208384
1025	12679365 2142 7379 20843 3.809000836155 4.458670960424 72 0 4.4e-05 0.001056 4.6464e-08
1026	12681507 1473 7379 21131 3.809000836155 4.459389268684 50 14 1064 20940 21541320
1027	12682980 1473 7379 21131 3.809000836155 4.459389268684 50 14 1064 20940 21541320
1028	12684453 1473 7379 21131 3.809000836155 4.459389268684 50 14 1064 20940 21541320
1029	12685926 91636 7381 283084 3.809000905948 120.751770585398 2895 0 4.4e-05 0.04246 1.86824e-06
1030	12777562 60123 7381 283023 3.809000905948 120.751726585398 1898 14 1064 1015032 1065526088
1031	12837685 60123 7381 283023 3.809000905948 120.751726585398 1898 14 1064 1015032 1065526088
1032	12897808 60123 7381 283023 3.809000905948 120.751726585398 1898 14 1064 1015032 1065526088
1033	12957931 90160 7383 283221 3.809000974717 120.752847284863 2847 0 4.4e-05 0.041756 1.837264e-06
1034	13048091 60176 7383 283161 3.809000974717 120.752803284863 1901 14 1064 1015144 1065533536
1035	13108267 60176 7383 283161 3.809000974717 120.752803284863 1901 14 1064 1015144 1065533536
1036	13168443 60176 7383 283161 3.809000974717 120.752803284863 1901 14 1064 1015144 1065533536
1037	13228619 824 7439 21052 3.809044919446 4.459344646679 28 14 1064 11222 11355828
1038	13229443 14822 7450 283102 3.809045250808 120.751771521764 484 14 84 7126 129164
1039	13244265 14822 7450 283102 3.809045250808 120.751771521764 484 14 84 7126 129164
1040	13259087 15089 7450 283102 3.809045250808 120.751771521764 493 14 1064 15726 9193676
1041	13274176 14822 7450 283102 3.809045250808 120.751771521764 484 14 84 7126 129164
1042	13288998 28 7613 7613 3.809839219079 3.809839219079 1 28 28 28 784
1043	13289026 28 7674 7674 3.809889910877 3.809889910877 1 28 28 28 784
1044	13289054 863 7727 19706 3.810049910877 4.251891076544 29 14 1064 16276 16994944
1045	13289917 47604 7732 282813 3.810050391418 120.750077320632 1506 0 4.4e-05 0.022088 9.71872e-07
1046	13337521 17102 7732 282758 3.810050391418 120.750033320632 528 14 1064 528532 561555208
1047	13354623 17102 7732 282758 3.810050391418 120.750033320632 528 14 1064 528532 561555208
1048	13371725 17102 7732 282758 3.810050391418 120.750033320632 528 14 1064 528532 561555208
1049	13388827 91671 7734 282942 3.810050451148 120.751153721737 2895 0 4.4e-05 0.04246 1.86824e-06
1050	13480498 45360 7734 282878 3.810050451148 120.751109721737 1416 14 1064 1009144 1066545896
1051	13525858 45360 7734 282878 3.810050451148 120.751109721737 1416 14 1064 1009144 1066545896
1052	13571218 45360 7734 282878 3.810050451148 120.751109721737 1416 14 1064 1009144 1066545896
1053	13616578 1068 7746 19783 3.810050612235 4.251935777902 36 0 4.4e-05 0.000528 2.3232e-08
1054	13617646 709 7746 19725 3.810050612235 4.251891777902 24 14 1064 10956 11334464
1055	13618355 709 7746 19725 3.810050612235 4.251891777902 24 14 1064 10956 11334464
1056	13619064 709 7746 19725 3.810050612235 4.251891777902 24 14 1064 10956 11334464
1057	13619773 92089 7748 283086 3.810050617419 120.751770709521 2910 0 4.4e-05 0.04268 1.87792e-06
1058	13711862 17081 7748 283027 3.810050617419 120.751726709521 528 14 1064 528532 561555208
1059	13728943 17081 7748 283027 3.810050617419 120.751726709521 528 14 1064 528532 561555208
1060	13746024 17081 7748 283027 3.810050617419 120.751726709521 528 14 1064 528532 561555208
1061	13763105 47640 7752 282808 3.81005073711 120.750076940274 1509 0 4.4e-05 0.022132 9.73808e-07
1062	13810745 17112 7752 282746 3.81005073711 120.750032940274 529 14 1064 529596 562687304
1063	13827857 17112 7752 282746 3.81005073711 120.750032940274 529 14 1064 529596 562687304
1064	13844969 17112 7752 282746 3.81005073711 120.750032940274 529 14 1064 529596 562687304
1065	13862081 44611 7811 283228 3.810094955323 120.752848205774 1423 14 1064 510722 528918308
1066	13906692 44581 7811 283228 3.810094955323 120.752848205774 1422 14 1064 509658 527786212
1067	13951273 44581 7811 283228 3.810094955323 120.752848205774 1422 14 1064 509658 527786212
1068	13995854 703 7821 19800 3.810095294473 4.25193646014 24 14 1064 10956 11334464
1069	13996557 28 7984 7984 3.811944999116 3.811944999116 1 28 28 28 784
1070	13996585 28 8029 8029 3.811995539387 3.811995539387 1 28 28 28 784
1071	13996613 922 8104 19567 3.812195539387 4.250974536273 31 14 1064 18404 19259136
1072	13997535 91926 8109 282949 3.812195969271 120.751154054932 2904 0 4.4e-05 0.042592 1.874048e-06
1073	14089461 15840 8109 282894 3.812195969271 120.751110054932 485 14 1064 511940 544546760
1074	14105301 15840 8109 282894 3.812195969271 120.751110054932 485 14 1064 511940 544546760
1075	14121141 15840 8109 282894 3.812195969271 120.751110054932 485 14 1064 511940 544546760
1076	14136981 91017 8111 282945 3.812196014538 120.751153819551 2874 0 4.4e-05 0.042152 1.854688e-06
1077	14227998 46055 8111 282884 3.812196014538 120.751109819551 1440 14 1064 1020100 1077880360
1078	14274053 46055 8111 282884 3.812196014538 120.751109819551 1440 14 1064 1020100 1077880360
1079	14320108 46055 8111 282884 3.812196014538 120.751109819551 1440 14 1064 1020100 1077880360
1080	14366163 45600 8123 282943 3.812196273719 120.751153758987 1440 0 4.4e-05 0.02112 9.2928e-07
1081	14411763 30391 8123 282880 3.812196273719 120.751109758987 960 14 1064 513480 538994080
1082	14442154 30391 8123 282880 3.812196273719 120.751109758987 960 14 1064 513480 538994080
1083	14472545 30391 8123 282880 3.812196273719 120.751109758987 960 14 1064 513480 538994080
1084	14502936 708 8184 19647 3.812240619929 4.251019616815 24 14 1064 10956 11334464
1085	14503644 28 8358 8358 3.815048250797 3.815048250797 1 28 28 28 784
1086	14503672 57 8399 21722 3.815098680681 4.467798853122 2 28 28 56 1568
1087	14503729 15876 8469 282743 3.815418680681 120.750032537438 487 14 1064 514068 546810952
1088	14519605 14735 8543 282827 3.815463540449 120.750078054932 480 14 84 6860 107800
1089	14534340 514 9067 17010 3.817981094427 4.174238204606 17 14 1064 14110 14740676
1090	14534854 427 9069 17005 3.817981202402 4.174237981723 14 88 1064 12944 13600640
1091	14535281 154 9157 13131 3.819196510604 3.846442731768 5 1064 1064 5320 5660480
1092	14535435 90 9170 16345 3.819197202402 4.172687228242 3 84 1064 2212 2271248
1093	14535525 215 9302 12053 3.819696400217 3.836766740761 7 1064 1064 7448 7924672
1094	14535740 154 9309 12060 3.819696830101 3.836767170645 5 1064 1064 5320 5660480
1095	14535894 358 9552 17307 3.820278345597 4.175287350665 12 14 1064 7814 7955844
1096	14536252 267 9677 17278 3.82109023906 4.175267851391 9 88 1064 8600 9064512
1097	14536519 238 9796 17105 3.82162555505 4.174853629075 8 84 1064 7532 7931728
1098	14536757 216 9834 12841 3.821875689869 3.841169110955 7 1064 1064 7448 7924672
1099	14536973 155 10449 12850 3.827148809444 3.841169651226 5 1064 1064 5320 5660480
1100	14537128 30 12423 12423 3.83822055505 3.83822055505 1 1064 1064 1064 1132096
1101	14537158 30 12423 12423 3.83822055505 3.83822055505 1 1064 1064 1064 1132096
1102	14537188 29 16345 16345 4.172687228242 4.172687228242 1 84 84 84 7056
1103	14537217 29 16345 16345 4.172687228242 4.172687228242 1 84 84 84 7056
1104	14537246 56 16514 17303 4.1728800894 4.175287220575 2 88 88 176 15488
1105	14537302 56 16514 17303 4.1728800894 4.175287220575 2 88 88 176 15488
1106	14537358 31 17118 17118 4.174854313085 4.174854313085 1 1064 1064 1064 1132096
1107	14537389 15517 17122 283169 4.174854313085 120.752803521764 475 1000 1000 475000 475000000
1108	14552906 24346 17122 283322 0.1 121 1210 0 640000 38000000 3398400000000
1109	14577252 20266 17122 283169 4.174854313085 120.752803521764 475 0.001932984326 1.924861256505 9.723146917231 11.507821352397
1110	14597518 14934 17122 283169 4.174854313085 120.752803521764 475 1 475 113050 35836850
1111	14612452 28 20153 20153 4.45387732791 4.45387732791 1 28 28 28 784
1112	14612480 29770 20206 283150 4.45411732791 120.752802711141 939 14 1064 502636 527667064
1113	14642250 29771 20290 283232 4.454162949156 120.752848332387 939 14 1064 502686 527670964
1114	14672021 58 20574 20608 4.458075892577 4.458083160059 2 28 28 56 1568
1115	14672079 29 20715 20715 4.458386600865 4.458386600865 1 28 28 28 784
1116	14672108 29676 20907 283012 4.458931492549 120.751726002853 936 14 1064 502524 527659616
1117	14701784 44521 20912 283081 4.458931978907 120.751770489211 1404 0 4.4e-05 0.020592 9.06048e-07
1118	14746305 29676 20912 283017 4.458931978907 120.751726489211 936 14 1064 502524 527659616
1119	14775981 29676 20912 283017 4.458931978907 120.751726489211 936 14 1064 502524 527659616
1120	14805657 29676 20912 283017 4.458931978907 120.751726489211 936 14 1064 502524 527659616
1121	14835333 89107 20920 283085 4.458932188452 120.751770698756 2808 0 4.4e-05 0.041184 1.812096e-06
1122	14924440 59396 20920 283025 4.458932188452 120.751726698756 1872 14 1064 1005048 1055319232
1123	14983836 59396 20920 283025 4.458932188452 120.751726698756 1872 14 1064 1005048 1055319232
1124	15043232 59396 20920 283025 4.458932188452 120.751726698756 1872 14 1064 1005048 1055319232
1125	15102628 29695 20995 283100 4.458976909125 120.751771419429 936 14 1064 502524 527659616
1126	15132323 29 21293 21293 4.464037078815 4.464037078815 1 28 28 28 784
1127	15132352 29 21354 21354 4.464087785483 4.464087785483 1 28 28 28 784
1128	15132381 29688 21411 282875 4.464747785483 120.751109296185 936 14 1064 502524 527659616
1129	15162069 29685 21499 282963 4.464793198819 120.751154709521 936 14 1064 502524 527659616
1130	15191754 29 21661 21661 4.467748094375 4.467748094375 1 28 28 28 784
1131	15191783 22860 283322 283322 0.1 121 1210 0 0 0 0
343	15214643 59 283322 283322 120.8 121 3 0 85120 85120 7245414400
349	15214702 59 283322 283322 120.8 121 3 0 85120 85120 7245414400
581	15214761 59 283322 283322 120.8 121 3 0 85120 85120 7245414400
587	15214820 59 283322 283322 120.8 121 3 0 85120 85120 7245414400
710	15214879 21081 283322 283322 3.5 121 1176 0 7040 7040 49561600
716	15235960 21081 283322 283322 3.5 121 1176 0 7040 7040 49561600
723	15257041 20964 283322 283322 4.2 121 1169 0 7040 7040 49561600
729	15278005 20964 283322 283322 4.2 121 1169 0 7040 7040 49561600
776	15298969 20948 283322 283322 4.3 121 1168 0 85120 85120 7245414400
782	15319917 20948 283322 283322 4.3 121 1168 0 85120 85120 7245414400
839	15340865 16265 283322 283322 30.9 121 902 0 0 0 0
945	15357130 20964 283322 283322 4.2 121 1169 0 7040 7040 49561600
951	15378094 20964 283322 283322 4.2 121 1169 0 7040 7040 49561600

