file 22673905 1731033897                                        
version 3
run Gpsr_Moblity_0mps-2-20241108-09:44:55-46111
attr configname Gpsr_Moblity_0mps
attr datetime 20241108-09:44:55
attr datetimef 20241108-094455
attr experiment Gpsr_Moblity_0mps
attr inifile Net1Test.ini
attr iterationvars ""
attr iterationvarsd ""
attr iterationvarsf ""
attr measurement ""
attr network Net1Test
attr processid 46111
attr repetition 2
attr replication #2
attr resultdir results
attr runnumber 2
attr seedset 2
config image-path ../../inet4.4/images
config extends "StationaryMobility, Gpsr"
config *.*.mobility.typename StationaryMobility
config *.*.routing.typename Gpsr
config *.*.routing.beaconInterval 2s
config network Net1Test
config sim-time-limit 121s
config repeat 3
config **.wlan[*].radio.typename Ieee80211ScalarRadio
config **.wlan[*].bitrate 24Mbps
config **.wlan[*].radio.transmitter.power 3dBm
config *.Destination.wlan[*].radio.displayCommunicationRange true
config *.Source.wlan[*].radio.displayCommunicationRange true
config *.U3.wlan[*].radio.displayCommunicationRange true
config *.radioMedium.pathLoss.typename FreeSpacePathLoss
config *.visualizer.osgVisualizer.typename IntegratedOsgVisualizer
config *.visualizer.osgVisualizer.sceneVisualizer.clearColor "\"skyblue\""
config *.visualizer.osgVisualizer.sceneVisualizer.sceneImage "\"showcases/desert\""
config *.visualizer.osgVisualizer.sceneVisualizer.sceneImageSize 6000m
config *.visualizer.osgVisualizer.sceneVisualizer.axisLength 6200m
config *.visualizer.osgVisualizer.sceneVisualizer.sceneMinX -1000m
config *.visualizer.osgVisualizer.sceneVisualizer.sceneMinY -1000m
config *.visualizer.osgVisualizer.sceneVisualizer.sceneMinZ 100m
config *.visualizer.osgVisualizer.sceneVisualizer.sceneMaxX 6100m
config *.visualizer.osgVisualizer.sceneVisualizer.sceneMaxY 6100m
config *.visualizer.osgVisualizer.sceneVisualizer.sceneMaxZ 1000m
config *.visualizer.*.networkRouteVisualizer.displayRoutes true
config *.visualizer.*.networkRouteVisualizer[0].packetFilter "\"UDP*\""
config *.visualizer.*.infoVisualizer.modules "\"*.*.app[0]\""
config *.visualizer.*.infoVisualizer.format "\"%t\""
config *.visualizer.*.infoVisualizer.placementHint "\"topCenter\""
config *.Source.numApps 1
config *.Source.app[0].typename UdpBasicApp
config *.Source.app[0].destAddresses "\"Destination\""
config *.Source.app[0].destPort 1000
config *.Source.app[0].sendInterval normal(250ms,10us)
config *.Source.app[0].startTime 2s
config *.Source.app[0].messageLength 1000Byte
config *.Source.app[0].packetName "\"UDPdata\""
config *.Destination.numApps 1
config *.Destination.app[0].typename UdpSink
config *.Destination.app[0].localPort 1000
config *.*.mobility.constraintAreaMinX 0m
config *.*.mobility.constraintAreaMinY 0m
config *.*.mobility.constraintAreaMinZ 0m
config *.*.mobility.constraintAreaMaxX 1000m
config *.*.mobility.constraintAreaMaxY 7500m
config *.*.mobility.constraintAreaMaxZ 0m

vector 0 Net1Test.Source.wlan[0].mac.dcf frameSequenceActive:vector ETV
attr autoWarmupFilter false
attr interpolationmode sample-hold
attr recordingmode vector
attr source warmup(count(frameSequenceStarted)-count(frameSequenceFinished))
attr title "frame sequence active"
vector 1 Net1Test.Source.wlan[0].mac.dcf.channelAccess.inProgressFrames queueLength:vector ETV
attr autoWarmupFilter false
attr interpolationmode sample-hold
attr recordingmode vector
attr source "warmup(count(packetEnqueued) - count(packetDequeued))"
attr title "queue length"
vector 2 Net1Test.Source.wlan[0].mac.dcf.channelAccess.contention backoffActive:vector ETV
attr autoWarmupFilter false
attr interpolationmode sample-hold
attr recordingmode vector
attr source warmup(count(backoffStarted)-count(backoffStopped))
attr title "backoff active"
vector 3 Net1Test.Source.udp passedUpPk:vector(count) ETV
attr interpolationmode none
attr recordingmode vector(count)
attr source packetSentToUpper
attr title "packets passed up, count"
vector 4 Net1Test.Source.udp droppedPkWrongPort:vector(count) ETV
attr interpolationmode none
attr recordingmode vector(count)
attr source packetDropReasonIsNoPortFound(packetDropped)
attr title "packets dropped (wrong port), count"
vector 5 Net1Test.Source.udp droppedPkBadChecksum:vector(count) ETV
attr interpolationmode none
attr recordingmode vector(count)
attr source packetDropReasonIsIncorrectlyReceived(packetDropped)
attr title "packets dropped (checksum error), count"
vector 6 Net1Test.Destination.wlan[0].mac.dcf frameSequenceActive:vector ETV
attr autoWarmupFilter false
attr interpolationmode sample-hold
attr recordingmode vector
attr source warmup(count(frameSequenceStarted)-count(frameSequenceFinished))
attr title "frame sequence active"
vector 7 Net1Test.Destination.wlan[0].mac.dcf.channelAccess.inProgressFrames queueLength:vector ETV
attr autoWarmupFilter false
attr interpolationmode sample-hold
attr recordingmode vector
attr source "warmup(count(packetEnqueued) - count(packetDequeued))"
attr title "queue length"
vector 8 Net1Test.Destination.wlan[0].mac.dcf.channelAccess.contention backoffActive:vector ETV
attr autoWarmupFilter false
attr interpolationmode sample-hold
attr recordingmode vector
attr source warmup(count(backoffStarted)-count(backoffStopped))
attr title "backoff active"
vector 9 Net1Test.Destination.udp passedUpPk:vector(count) ETV
attr interpolationmode none
attr recordingmode vector(count)
attr source packetSentToUpper
attr title "packets passed up, count"
vector 10 Net1Test.Destination.udp droppedPkWrongPort:vector(count) ETV
attr interpolationmode none
attr recordingmode vector(count)
attr source packetDropReasonIsNoPortFound(packetDropped)
attr title "packets dropped (wrong port), count"
vector 11 Net1Test.Destination.udp droppedPkBadChecksum:vector(count) ETV
attr interpolationmode none
attr recordingmode vector(count)
attr source packetDropReasonIsIncorrectlyReceived(packetDropped)
attr title "packets dropped (checksum error), count"
vector 12 Net1Test.U2.wlan[0].mac.dcf frameSequenceActive:vector ETV
attr autoWarmupFilter false
attr interpolationmode sample-hold
attr recordingmode vector
attr source warmup(count(frameSequenceStarted)-count(frameSequenceFinished))
attr title "frame sequence active"
vector 13 Net1Test.U2.wlan[0].mac.dcf.channelAccess.inProgressFrames queueLength:vector ETV
attr autoWarmupFilter false
attr interpolationmode sample-hold
attr recordingmode vector
attr source "warmup(count(packetEnqueued) - count(packetDequeued))"
attr title "queue length"
vector 14 Net1Test.U2.wlan[0].mac.dcf.channelAccess.contention backoffActive:vector ETV
attr autoWarmupFilter false
attr interpolationmode sample-hold
attr recordingmode vector
attr source warmup(count(backoffStarted)-count(backoffStopped))
attr title "backoff active"
vector 15 Net1Test.U2.udp passedUpPk:vector(count) ETV
attr interpolationmode none
attr recordingmode vector(count)
attr source packetSentToUpper
attr title "packets passed up, count"
vector 16 Net1Test.U2.udp droppedPkWrongPort:vector(count) ETV
attr interpolationmode none
attr recordingmode vector(count)
attr source packetDropReasonIsNoPortFound(packetDropped)
attr title "packets dropped (wrong port), count"
vector 17 Net1Test.U2.udp droppedPkBadChecksum:vector(count) ETV
attr interpolationmode none
attr recordingmode vector(count)
attr source packetDropReasonIsIncorrectlyReceived(packetDropped)
attr title "packets dropped (checksum error), count"
vector 18 Net1Test.U3.wlan[0].mac.dcf frameSequenceActive:vector ETV
attr autoWarmupFilter false
attr interpolationmode sample-hold
attr recordingmode vector
attr source warmup(count(frameSequenceStarted)-count(frameSequenceFinished))
attr title "frame sequence active"
vector 19 Net1Test.U3.wlan[0].mac.dcf.channelAccess.inProgressFrames queueLength:vector ETV
attr autoWarmupFilter false
attr interpolationmode sample-hold
attr recordingmode vector
attr source "warmup(count(packetEnqueued) - count(packetDequeued))"
attr title "queue length"
vector 20 Net1Test.U3.wlan[0].mac.dcf.channelAccess.contention backoffActive:vector ETV
attr autoWarmupFilter false
attr interpolationmode sample-hold
attr recordingmode vector
attr source warmup(count(backoffStarted)-count(backoffStopped))
attr title "backoff active"
vector 21 Net1Test.U3.udp passedUpPk:vector(count) ETV
attr interpolationmode none
attr recordingmode vector(count)
attr source packetSentToUpper
attr title "packets passed up, count"
vector 22 Net1Test.U3.udp droppedPkWrongPort:vector(count) ETV
attr interpolationmode none
attr recordingmode vector(count)
attr source packetDropReasonIsNoPortFound(packetDropped)
attr title "packets dropped (wrong port), count"
vector 23 Net1Test.U3.udp droppedPkBadChecksum:vector(count) ETV
attr interpolationmode none
attr recordingmode vector(count)
attr source packetDropReasonIsIncorrectlyReceived(packetDropped)
attr title "packets dropped (checksum error), count"
vector 24 Net1Test.U4.wlan[0].mac.dcf frameSequenceActive:vector ETV
attr autoWarmupFilter false
attr interpolationmode sample-hold
attr recordingmode vector
attr source warmup(count(frameSequenceStarted)-count(frameSequenceFinished))
attr title "frame sequence active"
vector 25 Net1Test.U4.wlan[0].mac.dcf.channelAccess.inProgressFrames queueLength:vector ETV
attr autoWarmupFilter false
attr interpolationmode sample-hold
attr recordingmode vector
attr source "warmup(count(packetEnqueued) - count(packetDequeued))"
attr title "queue length"
vector 26 Net1Test.U4.wlan[0].mac.dcf.channelAccess.contention backoffActive:vector ETV
attr autoWarmupFilter false
attr interpolationmode sample-hold
attr recordingmode vector
attr source warmup(count(backoffStarted)-count(backoffStopped))
attr title "backoff active"
vector 27 Net1Test.U4.udp passedUpPk:vector(count) ETV
attr interpolationmode none
attr recordingmode vector(count)
attr source packetSentToUpper
attr title "packets passed up, count"
vector 28 Net1Test.U4.udp droppedPkWrongPort:vector(count) ETV
attr interpolationmode none
attr recordingmode vector(count)
attr source packetDropReasonIsNoPortFound(packetDropped)
attr title "packets dropped (wrong port), count"
vector 29 Net1Test.U4.udp droppedPkBadChecksum:vector(count) ETV
attr interpolationmode none
attr recordingmode vector(count)
attr source packetDropReasonIsIncorrectlyReceived(packetDropped)
attr title "packets dropped (checksum error), count"
vector 30 Net1Test.U5.wlan[0].mac.dcf frameSequenceActive:vector ETV
attr autoWarmupFilter false
attr interpolationmode sample-hold
attr recordingmode vector
attr source warmup(count(frameSequenceStarted)-count(frameSequenceFinished))
attr title "frame sequence active"
vector 31 Net1Test.U5.wlan[0].mac.dcf.channelAccess.inProgressFrames queueLength:vector ETV
attr autoWarmupFilter false
attr interpolationmode sample-hold
attr recordingmode vector
attr source "warmup(count(packetEnqueued) - count(packetDequeued))"
attr title "queue length"
vector 32 Net1Test.U5.wlan[0].mac.dcf.channelAccess.contention backoffActive:vector ETV
attr autoWarmupFilter false
attr interpolationmode sample-hold
attr recordingmode vector
attr source warmup(count(backoffStarted)-count(backoffStopped))
attr title "backoff active"
vector 33 Net1Test.U5.udp passedUpPk:vector(count) ETV
attr interpolationmode none
attr recordingmode vector(count)
attr source packetSentToUpper
attr title "packets passed up, count"
vector 34 Net1Test.U5.udp droppedPkWrongPort:vector(count) ETV
attr interpolationmode none
attr recordingmode vector(count)
attr source packetDropReasonIsNoPortFound(packetDropped)
attr title "packets dropped (wrong port), count"
vector 35 Net1Test.U5.udp droppedPkBadChecksum:vector(count) ETV
attr interpolationmode none
attr recordingmode vector(count)
attr source packetDropReasonIsIncorrectlyReceived(packetDropped)
attr title "packets dropped (checksum error), count"
vector 36 Net1Test.U6.wlan[0].mac.dcf frameSequenceActive:vector ETV
attr autoWarmupFilter false
attr interpolationmode sample-hold
attr recordingmode vector
attr source warmup(count(frameSequenceStarted)-count(frameSequenceFinished))
attr title "frame sequence active"
vector 37 Net1Test.U6.wlan[0].mac.dcf.channelAccess.inProgressFrames queueLength:vector ETV
attr autoWarmupFilter false
attr interpolationmode sample-hold
attr recordingmode vector
attr source "warmup(count(packetEnqueued) - count(packetDequeued))"
attr title "queue length"
vector 38 Net1Test.U6.wlan[0].mac.dcf.channelAccess.contention backoffActive:vector ETV
attr autoWarmupFilter false
attr interpolationmode sample-hold
attr recordingmode vector
attr source warmup(count(backoffStarted)-count(backoffStopped))
attr title "backoff active"
vector 39 Net1Test.U6.udp passedUpPk:vector(count) ETV
attr interpolationmode none
attr recordingmode vector(count)
attr source packetSentToUpper
attr title "packets passed up, count"
vector 40 Net1Test.U6.udp droppedPkWrongPort:vector(count) ETV
attr interpolationmode none
attr recordingmode vector(count)
attr source packetDropReasonIsNoPortFound(packetDropped)
attr title "packets dropped (wrong port), count"
vector 41 Net1Test.U6.udp droppedPkBadChecksum:vector(count) ETV
attr interpolationmode none
attr recordingmode vector(count)
attr source packetDropReasonIsIncorrectlyReceived(packetDropped)
attr title "packets dropped (checksum error), count"
vector 42 Net1Test.U7.wlan[0].mac.dcf frameSequenceActive:vector ETV
attr autoWarmupFilter false
attr interpolationmode sample-hold
attr recordingmode vector
attr source warmup(count(frameSequenceStarted)-count(frameSequenceFinished))
attr title "frame sequence active"
vector 43 Net1Test.U7.wlan[0].mac.dcf.channelAccess.inProgressFrames queueLength:vector ETV
attr autoWarmupFilter false
attr interpolationmode sample-hold
attr recordingmode vector
attr source "warmup(count(packetEnqueued) - count(packetDequeued))"
attr title "queue length"
vector 44 Net1Test.U7.wlan[0].mac.dcf.channelAccess.contention backoffActive:vector ETV
attr autoWarmupFilter false
attr interpolationmode sample-hold
attr recordingmode vector
attr source warmup(count(backoffStarted)-count(backoffStopped))
attr title "backoff active"
vector 45 Net1Test.U7.udp passedUpPk:vector(count) ETV
attr interpolationmode none
attr recordingmode vector(count)
attr source packetSentToUpper
attr title "packets passed up, count"
vector 46 Net1Test.U7.udp droppedPkWrongPort:vector(count) ETV
attr interpolationmode none
attr recordingmode vector(count)
attr source packetDropReasonIsNoPortFound(packetDropped)
attr title "packets dropped (wrong port), count"
vector 47 Net1Test.U7.udp droppedPkBadChecksum:vector(count) ETV
attr interpolationmode none
attr recordingmode vector(count)
attr source packetDropReasonIsIncorrectlyReceived(packetDropped)
attr title "packets dropped (checksum error), count"
vector 48 Net1Test.U8.wlan[0].mac.dcf frameSequenceActive:vector ETV
attr autoWarmupFilter false
attr interpolationmode sample-hold
attr recordingmode vector
attr source warmup(count(frameSequenceStarted)-count(frameSequenceFinished))
attr title "frame sequence active"
vector 49 Net1Test.U8.wlan[0].mac.dcf.channelAccess.inProgressFrames queueLength:vector ETV
attr autoWarmupFilter false
attr interpolationmode sample-hold
attr recordingmode vector
attr source "warmup(count(packetEnqueued) - count(packetDequeued))"
attr title "queue length"
vector 50 Net1Test.U8.wlan[0].mac.dcf.channelAccess.contention backoffActive:vector ETV
attr autoWarmupFilter false
attr interpolationmode sample-hold
attr recordingmode vector
attr source warmup(count(backoffStarted)-count(backoffStopped))
attr title "backoff active"
vector 51 Net1Test.U8.udp passedUpPk:vector(count) ETV
attr interpolationmode none
attr recordingmode vector(count)
attr source packetSentToUpper
attr title "packets passed up, count"
vector 52 Net1Test.U8.udp droppedPkWrongPort:vector(count) ETV
attr interpolationmode none
attr recordingmode vector(count)
attr source packetDropReasonIsNoPortFound(packetDropped)
attr title "packets dropped (wrong port), count"
vector 53 Net1Test.U8.udp droppedPkBadChecksum:vector(count) ETV
attr interpolationmode none
attr recordingmode vector(count)
attr source packetDropReasonIsIncorrectlyReceived(packetDropped)
attr title "packets dropped (checksum error), count"
vector 54 Net1Test.U9.wlan[0].mac.dcf frameSequenceActive:vector ETV
attr autoWarmupFilter false
attr interpolationmode sample-hold
attr recordingmode vector
attr source warmup(count(frameSequenceStarted)-count(frameSequenceFinished))
attr title "frame sequence active"
vector 55 Net1Test.U9.wlan[0].mac.dcf.channelAccess.inProgressFrames queueLength:vector ETV
attr autoWarmupFilter false
attr interpolationmode sample-hold
attr recordingmode vector
attr source "warmup(count(packetEnqueued) - count(packetDequeued))"
attr title "queue length"
vector 56 Net1Test.U9.wlan[0].mac.dcf.channelAccess.contention backoffActive:vector ETV
attr autoWarmupFilter false
attr interpolationmode sample-hold
attr recordingmode vector
attr source warmup(count(backoffStarted)-count(backoffStopped))
attr title "backoff active"
vector 57 Net1Test.U9.udp passedUpPk:vector(count) ETV
attr interpolationmode none
attr recordingmode vector(count)
attr source packetSentToUpper
attr title "packets passed up, count"
vector 58 Net1Test.U9.udp droppedPkWrongPort:vector(count) ETV
attr interpolationmode none
attr recordingmode vector(count)
attr source packetDropReasonIsNoPortFound(packetDropped)
attr title "packets dropped (wrong port), count"
vector 59 Net1Test.U9.udp droppedPkBadChecksum:vector(count) ETV
attr interpolationmode none
attr recordingmode vector(count)
attr source packetDropReasonIsIncorrectlyReceived(packetDropped)
attr title "packets dropped (checksum error), count"
vector 60 Net1Test.U10.wlan[0].mac.dcf frameSequenceActive:vector ETV
attr autoWarmupFilter false
attr interpolationmode sample-hold
attr recordingmode vector
attr source warmup(count(frameSequenceStarted)-count(frameSequenceFinished))
attr title "frame sequence active"
vector 61 Net1Test.U10.wlan[0].mac.dcf.channelAccess.inProgressFrames queueLength:vector ETV
attr autoWarmupFilter false
attr interpolationmode sample-hold
attr recordingmode vector
attr source "warmup(count(packetEnqueued) - count(packetDequeued))"
attr title "queue length"
vector 62 Net1Test.U10.wlan[0].mac.dcf.channelAccess.contention backoffActive:vector ETV
attr autoWarmupFilter false
attr interpolationmode sample-hold
attr recordingmode vector
attr source warmup(count(backoffStarted)-count(backoffStopped))
attr title "backoff active"
vector 63 Net1Test.U10.udp passedUpPk:vector(count) ETV
attr interpolationmode none
attr recordingmode vector(count)
attr source packetSentToUpper
attr title "packets passed up, count"
vector 64 Net1Test.U10.udp droppedPkWrongPort:vector(count) ETV
attr interpolationmode none
attr recordingmode vector(count)
attr source packetDropReasonIsNoPortFound(packetDropped)
attr title "packets dropped (wrong port), count"
vector 65 Net1Test.U10.udp droppedPkBadChecksum:vector(count) ETV
attr interpolationmode none
attr recordingmode vector(count)
attr source packetDropReasonIsIncorrectlyReceived(packetDropped)
attr title "packets dropped (checksum error), count"
vector 66 Net1Test.U11.wlan[0].mac.dcf frameSequenceActive:vector ETV
attr autoWarmupFilter false
attr interpolationmode sample-hold
attr recordingmode vector
attr source warmup(count(frameSequenceStarted)-count(frameSequenceFinished))
attr title "frame sequence active"
vector 67 Net1Test.U11.wlan[0].mac.dcf.channelAccess.inProgressFrames queueLength:vector ETV
attr autoWarmupFilter false
attr interpolationmode sample-hold
attr recordingmode vector
attr source "warmup(count(packetEnqueued) - count(packetDequeued))"
attr title "queue length"
vector 68 Net1Test.U11.wlan[0].mac.dcf.channelAccess.contention backoffActive:vector ETV
attr autoWarmupFilter false
attr interpolationmode sample-hold
attr recordingmode vector
attr source warmup(count(backoffStarted)-count(backoffStopped))
attr title "backoff active"
vector 69 Net1Test.U11.udp passedUpPk:vector(count) ETV
attr interpolationmode none
attr recordingmode vector(count)
attr source packetSentToUpper
attr title "packets passed up, count"
vector 70 Net1Test.U11.udp droppedPkWrongPort:vector(count) ETV
attr interpolationmode none
attr recordingmode vector(count)
attr source packetDropReasonIsNoPortFound(packetDropped)
attr title "packets dropped (wrong port), count"
vector 71 Net1Test.U11.udp droppedPkBadChecksum:vector(count) ETV
attr interpolationmode none
attr recordingmode vector(count)
attr source packetDropReasonIsIncorrectlyReceived(packetDropped)
attr title "packets dropped (checksum error), count"
vector 72 Net1Test.U12.wlan[0].mac.dcf frameSequenceActive:vector ETV
attr autoWarmupFilter false
attr interpolationmode sample-hold
attr recordingmode vector
attr source warmup(count(frameSequenceStarted)-count(frameSequenceFinished))
attr title "frame sequence active"
vector 73 Net1Test.U12.wlan[0].mac.dcf.channelAccess.inProgressFrames queueLength:vector ETV
attr autoWarmupFilter false
attr interpolationmode sample-hold
attr recordingmode vector
attr source "warmup(count(packetEnqueued) - count(packetDequeued))"
attr title "queue length"
vector 74 Net1Test.U12.wlan[0].mac.dcf.channelAccess.contention backoffActive:vector ETV
attr autoWarmupFilter false
attr interpolationmode sample-hold
attr recordingmode vector
attr source warmup(count(backoffStarted)-count(backoffStopped))
attr title "backoff active"
vector 75 Net1Test.U12.udp passedUpPk:vector(count) ETV
attr interpolationmode none
attr recordingmode vector(count)
attr source packetSentToUpper
attr title "packets passed up, count"
vector 76 Net1Test.U12.udp droppedPkWrongPort:vector(count) ETV
attr interpolationmode none
attr recordingmode vector(count)
attr source packetDropReasonIsNoPortFound(packetDropped)
attr title "packets dropped (wrong port), count"
vector 77 Net1Test.U12.udp droppedPkBadChecksum:vector(count) ETV
attr interpolationmode none
attr recordingmode vector(count)
attr source packetDropReasonIsIncorrectlyReceived(packetDropped)
attr title "packets dropped (checksum error), count"
vector 78 Net1Test.U13.wlan[0].mac.dcf frameSequenceActive:vector ETV
attr autoWarmupFilter false
attr interpolationmode sample-hold
attr recordingmode vector
attr source warmup(count(frameSequenceStarted)-count(frameSequenceFinished))
attr title "frame sequence active"
vector 79 Net1Test.U13.wlan[0].mac.dcf.channelAccess.inProgressFrames queueLength:vector ETV
attr autoWarmupFilter false
attr interpolationmode sample-hold
attr recordingmode vector
attr source "warmup(count(packetEnqueued) - count(packetDequeued))"
attr title "queue length"
vector 80 Net1Test.U13.wlan[0].mac.dcf.channelAccess.contention backoffActive:vector ETV
attr autoWarmupFilter false
attr interpolationmode sample-hold
attr recordingmode vector
attr source warmup(count(backoffStarted)-count(backoffStopped))
attr title "backoff active"
vector 81 Net1Test.U13.udp passedUpPk:vector(count) ETV
attr interpolationmode none
attr recordingmode vector(count)
attr source packetSentToUpper
attr title "packets passed up, count"
vector 82 Net1Test.U13.udp droppedPkWrongPort:vector(count) ETV
attr interpolationmode none
attr recordingmode vector(count)
attr source packetDropReasonIsNoPortFound(packetDropped)
attr title "packets dropped (wrong port), count"
vector 83 Net1Test.U13.udp droppedPkBadChecksum:vector(count) ETV
attr interpolationmode none
attr recordingmode vector(count)
attr source packetDropReasonIsIncorrectlyReceived(packetDropped)
attr title "packets dropped (checksum error), count"
vector 84 Net1Test.U14.wlan[0].mac.dcf frameSequenceActive:vector ETV
attr autoWarmupFilter false
attr interpolationmode sample-hold
attr recordingmode vector
attr source warmup(count(frameSequenceStarted)-count(frameSequenceFinished))
attr title "frame sequence active"
vector 85 Net1Test.U14.wlan[0].mac.dcf.channelAccess.inProgressFrames queueLength:vector ETV
attr autoWarmupFilter false
attr interpolationmode sample-hold
attr recordingmode vector
attr source "warmup(count(packetEnqueued) - count(packetDequeued))"
attr title "queue length"
vector 86 Net1Test.U14.wlan[0].mac.dcf.channelAccess.contention backoffActive:vector ETV
attr autoWarmupFilter false
attr interpolationmode sample-hold
attr recordingmode vector
attr source warmup(count(backoffStarted)-count(backoffStopped))
attr title "backoff active"
vector 87 Net1Test.U14.udp passedUpPk:vector(count) ETV
attr interpolationmode none
attr recordingmode vector(count)
attr source packetSentToUpper
attr title "packets passed up, count"
vector 88 Net1Test.U14.udp droppedPkWrongPort:vector(count) ETV
attr interpolationmode none
attr recordingmode vector(count)
attr source packetDropReasonIsNoPortFound(packetDropped)
attr title "packets dropped (wrong port), count"
vector 89 Net1Test.U14.udp droppedPkBadChecksum:vector(count) ETV
attr interpolationmode none
attr recordingmode vector(count)
attr source packetDropReasonIsIncorrectlyReceived(packetDropped)
attr title "packets dropped (checksum error), count"
vector 90 Net1Test.U15.wlan[0].mac.dcf frameSequenceActive:vector ETV
attr autoWarmupFilter false
attr interpolationmode sample-hold
attr recordingmode vector
attr source warmup(count(frameSequenceStarted)-count(frameSequenceFinished))
attr title "frame sequence active"
vector 91 Net1Test.U15.wlan[0].mac.dcf.channelAccess.inProgressFrames queueLength:vector ETV
attr autoWarmupFilter false
attr interpolationmode sample-hold
attr recordingmode vector
attr source "warmup(count(packetEnqueued) - count(packetDequeued))"
attr title "queue length"
vector 92 Net1Test.U15.wlan[0].mac.dcf.channelAccess.contention backoffActive:vector ETV
attr autoWarmupFilter false
attr interpolationmode sample-hold
attr recordingmode vector
attr source warmup(count(backoffStarted)-count(backoffStopped))
attr title "backoff active"
vector 93 Net1Test.U15.udp passedUpPk:vector(count) ETV
attr interpolationmode none
attr recordingmode vector(count)
attr source packetSentToUpper
attr title "packets passed up, count"
vector 94 Net1Test.U15.udp droppedPkWrongPort:vector(count) ETV
attr interpolationmode none
attr recordingmode vector(count)
attr source packetDropReasonIsNoPortFound(packetDropped)
attr title "packets dropped (wrong port), count"
vector 95 Net1Test.U15.udp droppedPkBadChecksum:vector(count) ETV
attr interpolationmode none
attr recordingmode vector(count)
attr source packetDropReasonIsIncorrectlyReceived(packetDropped)
attr title "packets dropped (checksum error), count"
vector 96 Net1Test.U16.wlan[0].mac.dcf frameSequenceActive:vector ETV
attr autoWarmupFilter false
attr interpolationmode sample-hold
attr recordingmode vector
attr source warmup(count(frameSequenceStarted)-count(frameSequenceFinished))
attr title "frame sequence active"
vector 97 Net1Test.U16.wlan[0].mac.dcf.channelAccess.inProgressFrames queueLength:vector ETV
attr autoWarmupFilter false
attr interpolationmode sample-hold
attr recordingmode vector
attr source "warmup(count(packetEnqueued) - count(packetDequeued))"
attr title "queue length"
vector 98 Net1Test.U16.wlan[0].mac.dcf.channelAccess.contention backoffActive:vector ETV
attr autoWarmupFilter false
attr interpolationmode sample-hold
attr recordingmode vector
attr source warmup(count(backoffStarted)-count(backoffStopped))
attr title "backoff active"
vector 99 Net1Test.U16.udp passedUpPk:vector(count) ETV
attr interpolationmode none
attr recordingmode vector(count)
attr source packetSentToUpper
attr title "packets passed up, count"
vector 100 Net1Test.U16.udp droppedPkWrongPort:vector(count) ETV
attr interpolationmode none
attr recordingmode vector(count)
attr source packetDropReasonIsNoPortFound(packetDropped)
attr title "packets dropped (wrong port), count"
vector 101 Net1Test.U16.udp droppedPkBadChecksum:vector(count) ETV
attr interpolationmode none
attr recordingmode vector(count)
attr source packetDropReasonIsIncorrectlyReceived(packetDropped)
attr title "packets dropped (checksum error), count"
vector 102 Net1Test.U17.wlan[0].mac.dcf frameSequenceActive:vector ETV
attr autoWarmupFilter false
attr interpolationmode sample-hold
attr recordingmode vector
attr source warmup(count(frameSequenceStarted)-count(frameSequenceFinished))
attr title "frame sequence active"
vector 103 Net1Test.U17.wlan[0].mac.dcf.channelAccess.inProgressFrames queueLength:vector ETV
attr autoWarmupFilter false
attr interpolationmode sample-hold
attr recordingmode vector
attr source "warmup(count(packetEnqueued) - count(packetDequeued))"
attr title "queue length"
vector 104 Net1Test.U17.wlan[0].mac.dcf.channelAccess.contention backoffActive:vector ETV
attr autoWarmupFilter false
attr interpolationmode sample-hold
attr recordingmode vector
attr source warmup(count(backoffStarted)-count(backoffStopped))
attr title "backoff active"
vector 105 Net1Test.U17.udp passedUpPk:vector(count) ETV
attr interpolationmode none
attr recordingmode vector(count)
attr source packetSentToUpper
attr title "packets passed up, count"
vector 106 Net1Test.U17.udp droppedPkWrongPort:vector(count) ETV
attr interpolationmode none
attr recordingmode vector(count)
attr source packetDropReasonIsNoPortFound(packetDropped)
attr title "packets dropped (wrong port), count"
vector 107 Net1Test.U17.udp droppedPkBadChecksum:vector(count) ETV
attr interpolationmode none
attr recordingmode vector(count)
attr source packetDropReasonIsIncorrectlyReceived(packetDropped)
attr title "packets dropped (checksum error), count"
vector 108 Net1Test.U18.wlan[0].mac.dcf frameSequenceActive:vector ETV
attr autoWarmupFilter false
attr interpolationmode sample-hold
attr recordingmode vector
attr source warmup(count(frameSequenceStarted)-count(frameSequenceFinished))
attr title "frame sequence active"
vector 109 Net1Test.U18.wlan[0].mac.dcf.channelAccess.inProgressFrames queueLength:vector ETV
attr autoWarmupFilter false
attr interpolationmode sample-hold
attr recordingmode vector
attr source "warmup(count(packetEnqueued) - count(packetDequeued))"
attr title "queue length"
vector 110 Net1Test.U18.wlan[0].mac.dcf.channelAccess.contention backoffActive:vector ETV
attr autoWarmupFilter false
attr interpolationmode sample-hold
attr recordingmode vector
attr source warmup(count(backoffStarted)-count(backoffStopped))
attr title "backoff active"
vector 111 Net1Test.U18.udp passedUpPk:vector(count) ETV
attr interpolationmode none
attr recordingmode vector(count)
attr source packetSentToUpper
attr title "packets passed up, count"
vector 112 Net1Test.U18.udp droppedPkWrongPort:vector(count) ETV
attr interpolationmode none
attr recordingmode vector(count)
attr source packetDropReasonIsNoPortFound(packetDropped)
attr title "packets dropped (wrong port), count"
vector 113 Net1Test.U18.udp droppedPkBadChecksum:vector(count) ETV
attr interpolationmode none
attr recordingmode vector(count)
attr source packetDropReasonIsIncorrectlyReceived(packetDropped)
attr title "packets dropped (checksum error), count"
vector 114 Net1Test.U19.wlan[0].mac.dcf frameSequenceActive:vector ETV
attr autoWarmupFilter false
attr interpolationmode sample-hold
attr recordingmode vector
attr source warmup(count(frameSequenceStarted)-count(frameSequenceFinished))
attr title "frame sequence active"
vector 115 Net1Test.U19.wlan[0].mac.dcf.channelAccess.inProgressFrames queueLength:vector ETV
attr autoWarmupFilter false
attr interpolationmode sample-hold
attr recordingmode vector
attr source "warmup(count(packetEnqueued) - count(packetDequeued))"
attr title "queue length"
vector 116 Net1Test.U19.wlan[0].mac.dcf.channelAccess.contention backoffActive:vector ETV
attr autoWarmupFilter false
attr interpolationmode sample-hold
attr recordingmode vector
attr source warmup(count(backoffStarted)-count(backoffStopped))
attr title "backoff active"
vector 117 Net1Test.U19.udp passedUpPk:vector(count) ETV
attr interpolationmode none
attr recordingmode vector(count)
attr source packetSentToUpper
attr title "packets passed up, count"
vector 118 Net1Test.U19.udp droppedPkWrongPort:vector(count) ETV
attr interpolationmode none
attr recordingmode vector(count)
attr source packetDropReasonIsNoPortFound(packetDropped)
attr title "packets dropped (wrong port), count"
vector 119 Net1Test.U19.udp droppedPkBadChecksum:vector(count) ETV
attr interpolationmode none
attr recordingmode vector(count)
attr source packetDropReasonIsIncorrectlyReceived(packetDropped)
attr title "packets dropped (checksum error), count"
vector 120 Net1Test.U20.wlan[0].mac.dcf frameSequenceActive:vector ETV
attr autoWarmupFilter false
attr interpolationmode sample-hold
attr recordingmode vector
attr source warmup(count(frameSequenceStarted)-count(frameSequenceFinished))
attr title "frame sequence active"
vector 121 Net1Test.U20.wlan[0].mac.dcf.channelAccess.inProgressFrames queueLength:vector ETV
attr autoWarmupFilter false
attr interpolationmode sample-hold
attr recordingmode vector
attr source "warmup(count(packetEnqueued) - count(packetDequeued))"
attr title "queue length"
vector 122 Net1Test.U20.wlan[0].mac.dcf.channelAccess.contention backoffActive:vector ETV
attr autoWarmupFilter false
attr interpolationmode sample-hold
attr recordingmode vector
attr source warmup(count(backoffStarted)-count(backoffStopped))
attr title "backoff active"
vector 123 Net1Test.U20.udp passedUpPk:vector(count) ETV
attr interpolationmode none
attr recordingmode vector(count)
attr source packetSentToUpper
attr title "packets passed up, count"
vector 124 Net1Test.U20.udp droppedPkWrongPort:vector(count) ETV
attr interpolationmode none
attr recordingmode vector(count)
attr source packetDropReasonIsNoPortFound(packetDropped)
attr title "packets dropped (wrong port), count"
vector 125 Net1Test.U20.udp droppedPkBadChecksum:vector(count) ETV
attr interpolationmode none
attr recordingmode vector(count)
attr source packetDropReasonIsIncorrectlyReceived(packetDropped)
attr title "packets dropped (checksum error), count"
vector 126 Net1Test.U21.wlan[0].mac.dcf frameSequenceActive:vector ETV
attr autoWarmupFilter false
attr interpolationmode sample-hold
attr recordingmode vector
attr source warmup(count(frameSequenceStarted)-count(frameSequenceFinished))
attr title "frame sequence active"
vector 127 Net1Test.U21.wlan[0].mac.dcf.channelAccess.inProgressFrames queueLength:vector ETV
attr autoWarmupFilter false
attr interpolationmode sample-hold
attr recordingmode vector
attr source "warmup(count(packetEnqueued) - count(packetDequeued))"
attr title "queue length"
vector 128 Net1Test.U21.wlan[0].mac.dcf.channelAccess.contention backoffActive:vector ETV
attr autoWarmupFilter false
attr interpolationmode sample-hold
attr recordingmode vector
attr source warmup(count(backoffStarted)-count(backoffStopped))
attr title "backoff active"
vector 129 Net1Test.U21.udp passedUpPk:vector(count) ETV
attr interpolationmode none
attr recordingmode vector(count)
attr source packetSentToUpper
attr title "packets passed up, count"
vector 130 Net1Test.U21.udp droppedPkWrongPort:vector(count) ETV
attr interpolationmode none
attr recordingmode vector(count)
attr source packetDropReasonIsNoPortFound(packetDropped)
attr title "packets dropped (wrong port), count"
vector 131 Net1Test.U21.udp droppedPkBadChecksum:vector(count) ETV
attr interpolationmode none
attr recordingmode vector(count)
attr source packetDropReasonIsIncorrectlyReceived(packetDropped)
attr title "packets dropped (checksum error), count"
vector 132 Net1Test.U22.wlan[0].mac.dcf frameSequenceActive:vector ETV
attr autoWarmupFilter false
attr interpolationmode sample-hold
attr recordingmode vector
attr source warmup(count(frameSequenceStarted)-count(frameSequenceFinished))
attr title "frame sequence active"
vector 133 Net1Test.U22.wlan[0].mac.dcf.channelAccess.inProgressFrames queueLength:vector ETV
attr autoWarmupFilter false
attr interpolationmode sample-hold
attr recordingmode vector
attr source "warmup(count(packetEnqueued) - count(packetDequeued))"
attr title "queue length"
vector 134 Net1Test.U22.wlan[0].mac.dcf.channelAccess.contention backoffActive:vector ETV
attr autoWarmupFilter false
attr interpolationmode sample-hold
attr recordingmode vector
attr source warmup(count(backoffStarted)-count(backoffStopped))
attr title "backoff active"
vector 135 Net1Test.U22.udp passedUpPk:vector(count) ETV
attr interpolationmode none
attr recordingmode vector(count)
attr source packetSentToUpper
attr title "packets passed up, count"
vector 136 Net1Test.U22.udp droppedPkWrongPort:vector(count) ETV
attr interpolationmode none
attr recordingmode vector(count)
attr source packetDropReasonIsNoPortFound(packetDropped)
attr title "packets dropped (wrong port), count"
vector 137 Net1Test.U22.udp droppedPkBadChecksum:vector(count) ETV
attr interpolationmode none
attr recordingmode vector(count)
attr source packetDropReasonIsIncorrectlyReceived(packetDropped)
attr title "packets dropped (checksum error), count"
vector 138 Net1Test.U23.wlan[0].mac.dcf frameSequenceActive:vector ETV
attr autoWarmupFilter false
attr interpolationmode sample-hold
attr recordingmode vector
attr source warmup(count(frameSequenceStarted)-count(frameSequenceFinished))
attr title "frame sequence active"
vector 139 Net1Test.U23.wlan[0].mac.dcf.channelAccess.inProgressFrames queueLength:vector ETV
attr autoWarmupFilter false
attr interpolationmode sample-hold
attr recordingmode vector
attr source "warmup(count(packetEnqueued) - count(packetDequeued))"
attr title "queue length"
vector 140 Net1Test.U23.wlan[0].mac.dcf.channelAccess.contention backoffActive:vector ETV
attr autoWarmupFilter false
attr interpolationmode sample-hold
attr recordingmode vector
attr source warmup(count(backoffStarted)-count(backoffStopped))
attr title "backoff active"
vector 141 Net1Test.U23.udp passedUpPk:vector(count) ETV
attr interpolationmode none
attr recordingmode vector(count)
attr source packetSentToUpper
attr title "packets passed up, count"
vector 142 Net1Test.U23.udp droppedPkWrongPort:vector(count) ETV
attr interpolationmode none
attr recordingmode vector(count)
attr source packetDropReasonIsNoPortFound(packetDropped)
attr title "packets dropped (wrong port), count"
vector 143 Net1Test.U23.udp droppedPkBadChecksum:vector(count) ETV
attr interpolationmode none
attr recordingmode vector(count)
attr source packetDropReasonIsIncorrectlyReceived(packetDropped)
attr title "packets dropped (checksum error), count"
vector 144 Net1Test.U24.wlan[0].mac.dcf frameSequenceActive:vector ETV
attr autoWarmupFilter false
attr interpolationmode sample-hold
attr recordingmode vector
attr source warmup(count(frameSequenceStarted)-count(frameSequenceFinished))
attr title "frame sequence active"
vector 145 Net1Test.U24.wlan[0].mac.dcf.channelAccess.inProgressFrames queueLength:vector ETV
attr autoWarmupFilter false
attr interpolationmode sample-hold
attr recordingmode vector
attr source "warmup(count(packetEnqueued) - count(packetDequeued))"
attr title "queue length"
vector 146 Net1Test.U24.wlan[0].mac.dcf.channelAccess.contention backoffActive:vector ETV
attr autoWarmupFilter false
attr interpolationmode sample-hold
attr recordingmode vector
attr source warmup(count(backoffStarted)-count(backoffStopped))
attr title "backoff active"
vector 147 Net1Test.U24.udp passedUpPk:vector(count) ETV
attr interpolationmode none
attr recordingmode vector(count)
attr source packetSentToUpper
attr title "packets passed up, count"
vector 148 Net1Test.U24.udp droppedPkWrongPort:vector(count) ETV
attr interpolationmode none
attr recordingmode vector(count)
attr source packetDropReasonIsNoPortFound(packetDropped)
attr title "packets dropped (wrong port), count"
vector 149 Net1Test.U24.udp droppedPkBadChecksum:vector(count) ETV
attr interpolationmode none
attr recordingmode vector(count)
attr source packetDropReasonIsIncorrectlyReceived(packetDropped)
attr title "packets dropped (checksum error), count"
vector 150 Net1Test.U25.wlan[0].mac.dcf frameSequenceActive:vector ETV
attr autoWarmupFilter false
attr interpolationmode sample-hold
attr recordingmode vector
attr source warmup(count(frameSequenceStarted)-count(frameSequenceFinished))
attr title "frame sequence active"
vector 151 Net1Test.U25.wlan[0].mac.dcf.channelAccess.inProgressFrames queueLength:vector ETV
attr autoWarmupFilter false
attr interpolationmode sample-hold
attr recordingmode vector
attr source "warmup(count(packetEnqueued) - count(packetDequeued))"
attr title "queue length"
vector 152 Net1Test.U25.wlan[0].mac.dcf.channelAccess.contention backoffActive:vector ETV
attr autoWarmupFilter false
attr interpolationmode sample-hold
attr recordingmode vector
attr source warmup(count(backoffStarted)-count(backoffStopped))
attr title "backoff active"
vector 153 Net1Test.U25.udp passedUpPk:vector(count) ETV
attr interpolationmode none
attr recordingmode vector(count)
attr source packetSentToUpper
attr title "packets passed up, count"
vector 154 Net1Test.U25.udp droppedPkWrongPort:vector(count) ETV
attr interpolationmode none
attr recordingmode vector(count)
attr source packetDropReasonIsNoPortFound(packetDropped)
attr title "packets dropped (wrong port), count"
vector 155 Net1Test.U25.udp droppedPkBadChecksum:vector(count) ETV
attr interpolationmode none
attr recordingmode vector(count)
attr source packetDropReasonIsIncorrectlyReceived(packetDropped)
attr title "packets dropped (checksum error), count"
vector 156 Net1Test.Source.wlan[0].radio radioMode:vector ETV
attr interpolationmode sample-hold
attr recordingmode vector
attr source radioModeChanged
attr title "Radio mode"
vector 157 Net1Test.Source.wlan[0].radio radioChannel:vector ETV
attr interpolationmode sample-hold
attr recordingmode vector
attr source radioChannelChanged
attr title "Radio channel"
vector 158 Net1Test.Destination.wlan[0].radio radioMode:vector ETV
attr interpolationmode sample-hold
attr recordingmode vector
attr source radioModeChanged
attr title "Radio mode"
vector 159 Net1Test.Destination.wlan[0].radio radioChannel:vector ETV
attr interpolationmode sample-hold
attr recordingmode vector
attr source radioChannelChanged
attr title "Radio channel"
vector 160 Net1Test.U2.wlan[0].radio radioMode:vector ETV
attr interpolationmode sample-hold
attr recordingmode vector
attr source radioModeChanged
attr title "Radio mode"
vector 161 Net1Test.U2.wlan[0].radio radioChannel:vector ETV
attr interpolationmode sample-hold
attr recordingmode vector
attr source radioChannelChanged
attr title "Radio channel"
vector 162 Net1Test.U3.wlan[0].radio radioMode:vector ETV
attr interpolationmode sample-hold
attr recordingmode vector
attr source radioModeChanged
attr title "Radio mode"
vector 163 Net1Test.U3.wlan[0].radio radioChannel:vector ETV
attr interpolationmode sample-hold
attr recordingmode vector
attr source radioChannelChanged
attr title "Radio channel"
vector 164 Net1Test.U4.wlan[0].radio radioMode:vector ETV
attr interpolationmode sample-hold
attr recordingmode vector
attr source radioModeChanged
attr title "Radio mode"
vector 165 Net1Test.U4.wlan[0].radio radioChannel:vector ETV
attr interpolationmode sample-hold
attr recordingmode vector
attr source radioChannelChanged
attr title "Radio channel"
vector 166 Net1Test.U5.wlan[0].radio radioMode:vector ETV
attr interpolationmode sample-hold
attr recordingmode vector
attr source radioModeChanged
attr title "Radio mode"
vector 167 Net1Test.U5.wlan[0].radio radioChannel:vector ETV
attr interpolationmode sample-hold
attr recordingmode vector
attr source radioChannelChanged
attr title "Radio channel"
vector 168 Net1Test.U6.wlan[0].radio radioMode:vector ETV
attr interpolationmode sample-hold
attr recordingmode vector
attr source radioModeChanged
attr title "Radio mode"
vector 169 Net1Test.U6.wlan[0].radio radioChannel:vector ETV
attr interpolationmode sample-hold
attr recordingmode vector
attr source radioChannelChanged
attr title "Radio channel"
vector 170 Net1Test.U7.wlan[0].radio radioMode:vector ETV
attr interpolationmode sample-hold
attr recordingmode vector
attr source radioModeChanged
attr title "Radio mode"
vector 171 Net1Test.U7.wlan[0].radio radioChannel:vector ETV
attr interpolationmode sample-hold
attr recordingmode vector
attr source radioChannelChanged
attr title "Radio channel"
vector 172 Net1Test.U8.wlan[0].radio radioMode:vector ETV
attr interpolationmode sample-hold
attr recordingmode vector
attr source radioModeChanged
attr title "Radio mode"
vector 173 Net1Test.U8.wlan[0].radio radioChannel:vector ETV
attr interpolationmode sample-hold
attr recordingmode vector
attr source radioChannelChanged
attr title "Radio channel"
vector 174 Net1Test.U9.wlan[0].radio radioMode:vector ETV
attr interpolationmode sample-hold
attr recordingmode vector
attr source radioModeChanged
attr title "Radio mode"
vector 175 Net1Test.U9.wlan[0].radio radioChannel:vector ETV
attr interpolationmode sample-hold
attr recordingmode vector
attr source radioChannelChanged
attr title "Radio channel"
vector 176 Net1Test.U10.wlan[0].radio radioMode:vector ETV
attr interpolationmode sample-hold
attr recordingmode vector
attr source radioModeChanged
attr title "Radio mode"
vector 177 Net1Test.U10.wlan[0].radio radioChannel:vector ETV
attr interpolationmode sample-hold
attr recordingmode vector
attr source radioChannelChanged
attr title "Radio channel"
vector 178 Net1Test.U11.wlan[0].radio radioMode:vector ETV
attr interpolationmode sample-hold
attr recordingmode vector
attr source radioModeChanged
attr title "Radio mode"
vector 179 Net1Test.U11.wlan[0].radio radioChannel:vector ETV
attr interpolationmode sample-hold
attr recordingmode vector
attr source radioChannelChanged
attr title "Radio channel"
vector 180 Net1Test.U12.wlan[0].radio radioMode:vector ETV
attr interpolationmode sample-hold
attr recordingmode vector
attr source radioModeChanged
attr title "Radio mode"
vector 181 Net1Test.U12.wlan[0].radio radioChannel:vector ETV
attr interpolationmode sample-hold
attr recordingmode vector
attr source radioChannelChanged
attr title "Radio channel"
vector 182 Net1Test.U13.wlan[0].radio radioMode:vector ETV
attr interpolationmode sample-hold
attr recordingmode vector
attr source radioModeChanged
attr title "Radio mode"
vector 183 Net1Test.U13.wlan[0].radio radioChannel:vector ETV
attr interpolationmode sample-hold
attr recordingmode vector
attr source radioChannelChanged
attr title "Radio channel"
vector 184 Net1Test.U14.wlan[0].radio radioMode:vector ETV
attr interpolationmode sample-hold
attr recordingmode vector
attr source radioModeChanged
attr title "Radio mode"
vector 185 Net1Test.U14.wlan[0].radio radioChannel:vector ETV
attr interpolationmode sample-hold
attr recordingmode vector
attr source radioChannelChanged
attr title "Radio channel"
vector 186 Net1Test.U15.wlan[0].radio radioMode:vector ETV
attr interpolationmode sample-hold
attr recordingmode vector
attr source radioModeChanged
attr title "Radio mode"
vector 187 Net1Test.U15.wlan[0].radio radioChannel:vector ETV
attr interpolationmode sample-hold
attr recordingmode vector
attr source radioChannelChanged
attr title "Radio channel"
vector 188 Net1Test.U16.wlan[0].radio radioMode:vector ETV
attr interpolationmode sample-hold
attr recordingmode vector
attr source radioModeChanged
attr title "Radio mode"
vector 189 Net1Test.U16.wlan[0].radio radioChannel:vector ETV
attr interpolationmode sample-hold
attr recordingmode vector
attr source radioChannelChanged
attr title "Radio channel"
vector 190 Net1Test.U17.wlan[0].radio radioMode:vector ETV
attr interpolationmode sample-hold
attr recordingmode vector
attr source radioModeChanged
attr title "Radio mode"
vector 191 Net1Test.U17.wlan[0].radio radioChannel:vector ETV
attr interpolationmode sample-hold
attr recordingmode vector
attr source radioChannelChanged
attr title "Radio channel"
vector 192 Net1Test.U18.wlan[0].radio radioMode:vector ETV
attr interpolationmode sample-hold
attr recordingmode vector
attr source radioModeChanged
attr title "Radio mode"
vector 193 Net1Test.U18.wlan[0].radio radioChannel:vector ETV
attr interpolationmode sample-hold
attr recordingmode vector
attr source radioChannelChanged
attr title "Radio channel"
vector 194 Net1Test.U19.wlan[0].radio radioMode:vector ETV
attr interpolationmode sample-hold
attr recordingmode vector
attr source radioModeChanged
attr title "Radio mode"
vector 195 Net1Test.U19.wlan[0].radio radioChannel:vector ETV
attr interpolationmode sample-hold
attr recordingmode vector
attr source radioChannelChanged
attr title "Radio channel"
vector 196 Net1Test.U20.wlan[0].radio radioMode:vector ETV
attr interpolationmode sample-hold
attr recordingmode vector
attr source radioModeChanged
attr title "Radio mode"
vector 197 Net1Test.U20.wlan[0].radio radioChannel:vector ETV
attr interpolationmode sample-hold
attr recordingmode vector
attr source radioChannelChanged
attr title "Radio channel"
vector 198 Net1Test.U21.wlan[0].radio radioMode:vector ETV
attr interpolationmode sample-hold
attr recordingmode vector
attr source radioModeChanged
attr title "Radio mode"
vector 199 Net1Test.U21.wlan[0].radio radioChannel:vector ETV
attr interpolationmode sample-hold
attr recordingmode vector
attr source radioChannelChanged
attr title "Radio channel"
vector 200 Net1Test.U22.wlan[0].radio radioMode:vector ETV
attr interpolationmode sample-hold
attr recordingmode vector
attr source radioModeChanged
attr title "Radio mode"
vector 201 Net1Test.U22.wlan[0].radio radioChannel:vector ETV
attr interpolationmode sample-hold
attr recordingmode vector
attr source radioChannelChanged
attr title "Radio channel"
vector 202 Net1Test.U23.wlan[0].radio radioMode:vector ETV
attr interpolationmode sample-hold
attr recordingmode vector
attr source radioModeChanged
attr title "Radio mode"
vector 203 Net1Test.U23.wlan[0].radio radioChannel:vector ETV
attr interpolationmode sample-hold
attr recordingmode vector
attr source radioChannelChanged
attr title "Radio channel"
vector 204 Net1Test.U24.wlan[0].radio radioMode:vector ETV
attr interpolationmode sample-hold
attr recordingmode vector
attr source radioModeChanged
attr title "Radio mode"
vector 205 Net1Test.U24.wlan[0].radio radioChannel:vector ETV
attr interpolationmode sample-hold
attr recordingmode vector
attr source radioChannelChanged
attr title "Radio channel"
vector 206 Net1Test.U25.wlan[0].radio radioMode:vector ETV
attr interpolationmode sample-hold
attr recordingmode vector
attr source radioModeChanged
attr title "Radio mode"
vector 207 Net1Test.U25.wlan[0].radio radioChannel:vector ETV
attr interpolationmode sample-hold
attr recordingmode vector
attr source radioChannelChanged
attr title "Radio channel"
vector 208 Net1Test.Source.wlan[0].radio receptionState:vector ETV
attr interpolationmode sample-hold
attr recordingmode vector
attr source receptionStateChanged
attr title "Radio reception state"
vector 209 Net1Test.Source.wlan[0].mac.dcf.channelAccess.contention stateChanged:vector ETV
attr enum IDLE,DEFER,IFS_AND_BACKOFF
attr interpolationmode none
attr recordingmode vector
attr title "contention state changed"
attr type enum
vector 210 Net1Test.Destination.wlan[0].radio receptionState:vector ETV
attr interpolationmode sample-hold
attr recordingmode vector
attr source receptionStateChanged
attr title "Radio reception state"
vector 211 Net1Test.Destination.wlan[0].mac.dcf.channelAccess.contention stateChanged:vector ETV
attr enum IDLE,DEFER,IFS_AND_BACKOFF
attr interpolationmode none
attr recordingmode vector
attr title "contention state changed"
attr type enum
vector 212 Net1Test.U2.wlan[0].radio receptionState:vector ETV
attr interpolationmode sample-hold
attr recordingmode vector
attr source receptionStateChanged
attr title "Radio reception state"
vector 213 Net1Test.U2.wlan[0].mac.dcf.channelAccess.contention stateChanged:vector ETV
attr enum IDLE,DEFER,IFS_AND_BACKOFF
attr interpolationmode none
attr recordingmode vector
attr title "contention state changed"
attr type enum
vector 214 Net1Test.U3.wlan[0].radio receptionState:vector ETV
attr interpolationmode sample-hold
attr recordingmode vector
attr source receptionStateChanged
attr title "Radio reception state"
vector 215 Net1Test.U3.wlan[0].mac.dcf.channelAccess.contention stateChanged:vector ETV
attr enum IDLE,DEFER,IFS_AND_BACKOFF
attr interpolationmode none
attr recordingmode vector
attr title "contention state changed"
attr type enum
vector 216 Net1Test.U4.wlan[0].radio receptionState:vector ETV
attr interpolationmode sample-hold
attr recordingmode vector
attr source receptionStateChanged
attr title "Radio reception state"
vector 217 Net1Test.U4.wlan[0].mac.dcf.channelAccess.contention stateChanged:vector ETV
attr enum IDLE,DEFER,IFS_AND_BACKOFF
attr interpolationmode none
attr recordingmode vector
attr title "contention state changed"
attr type enum
vector 218 Net1Test.U5.wlan[0].radio receptionState:vector ETV
attr interpolationmode sample-hold
attr recordingmode vector
attr source receptionStateChanged
attr title "Radio reception state"
vector 219 Net1Test.U5.wlan[0].mac.dcf.channelAccess.contention stateChanged:vector ETV
attr enum IDLE,DEFER,IFS_AND_BACKOFF
attr interpolationmode none
attr recordingmode vector
attr title "contention state changed"
attr type enum
vector 220 Net1Test.U6.wlan[0].radio receptionState:vector ETV
attr interpolationmode sample-hold
attr recordingmode vector
attr source receptionStateChanged
attr title "Radio reception state"
vector 221 Net1Test.U6.wlan[0].mac.dcf.channelAccess.contention stateChanged:vector ETV
attr enum IDLE,DEFER,IFS_AND_BACKOFF
attr interpolationmode none
attr recordingmode vector
attr title "contention state changed"
attr type enum
vector 222 Net1Test.U7.wlan[0].radio receptionState:vector ETV
attr interpolationmode sample-hold
attr recordingmode vector
attr source receptionStateChanged
attr title "Radio reception state"
vector 223 Net1Test.U7.wlan[0].mac.dcf.channelAccess.contention stateChanged:vector ETV
attr enum IDLE,DEFER,IFS_AND_BACKOFF
attr interpolationmode none
attr recordingmode vector
attr title "contention state changed"
attr type enum
vector 224 Net1Test.U8.wlan[0].radio receptionState:vector ETV
attr interpolationmode sample-hold
attr recordingmode vector
attr source receptionStateChanged
attr title "Radio reception state"
vector 225 Net1Test.U8.wlan[0].mac.dcf.channelAccess.contention stateChanged:vector ETV
attr enum IDLE,DEFER,IFS_AND_BACKOFF
attr interpolationmode none
attr recordingmode vector
attr title "contention state changed"
attr type enum
vector 226 Net1Test.U9.wlan[0].radio receptionState:vector ETV
attr interpolationmode sample-hold
attr recordingmode vector
attr source receptionStateChanged
attr title "Radio reception state"
vector 227 Net1Test.U9.wlan[0].mac.dcf.channelAccess.contention stateChanged:vector ETV
attr enum IDLE,DEFER,IFS_AND_BACKOFF
attr interpolationmode none
attr recordingmode vector
attr title "contention state changed"
attr type enum
vector 228 Net1Test.U10.wlan[0].radio receptionState:vector ETV
attr interpolationmode sample-hold
attr recordingmode vector
attr source receptionStateChanged
attr title "Radio reception state"
vector 229 Net1Test.U10.wlan[0].mac.dcf.channelAccess.contention stateChanged:vector ETV
attr enum IDLE,DEFER,IFS_AND_BACKOFF
attr interpolationmode none
attr recordingmode vector
attr title "contention state changed"
attr type enum
vector 230 Net1Test.U11.wlan[0].radio receptionState:vector ETV
attr interpolationmode sample-hold
attr recordingmode vector
attr source receptionStateChanged
attr title "Radio reception state"
vector 231 Net1Test.U11.wlan[0].mac.dcf.channelAccess.contention stateChanged:vector ETV
attr enum IDLE,DEFER,IFS_AND_BACKOFF
attr interpolationmode none
attr recordingmode vector
attr title "contention state changed"
attr type enum
vector 232 Net1Test.U12.wlan[0].radio receptionState:vector ETV
attr interpolationmode sample-hold
attr recordingmode vector
attr source receptionStateChanged
attr title "Radio reception state"
vector 233 Net1Test.U12.wlan[0].mac.dcf.channelAccess.contention stateChanged:vector ETV
attr enum IDLE,DEFER,IFS_AND_BACKOFF
attr interpolationmode none
attr recordingmode vector
attr title "contention state changed"
attr type enum
vector 234 Net1Test.U13.wlan[0].radio receptionState:vector ETV
attr interpolationmode sample-hold
attr recordingmode vector
attr source receptionStateChanged
attr title "Radio reception state"
vector 235 Net1Test.U13.wlan[0].mac.dcf.channelAccess.contention stateChanged:vector ETV
attr enum IDLE,DEFER,IFS_AND_BACKOFF
attr interpolationmode none
attr recordingmode vector
attr title "contention state changed"
attr type enum
vector 236 Net1Test.U14.wlan[0].radio receptionState:vector ETV
attr interpolationmode sample-hold
attr recordingmode vector
attr source receptionStateChanged
attr title "Radio reception state"
vector 237 Net1Test.U14.wlan[0].mac.dcf.channelAccess.contention stateChanged:vector ETV
attr enum IDLE,DEFER,IFS_AND_BACKOFF
attr interpolationmode none
attr recordingmode vector
attr title "contention state changed"
attr type enum
vector 238 Net1Test.U15.wlan[0].radio receptionState:vector ETV
attr interpolationmode sample-hold
attr recordingmode vector
attr source receptionStateChanged
attr title "Radio reception state"
vector 239 Net1Test.U15.wlan[0].mac.dcf.channelAccess.contention stateChanged:vector ETV
attr enum IDLE,DEFER,IFS_AND_BACKOFF
attr interpolationmode none
attr recordingmode vector
attr title "contention state changed"
attr type enum
vector 240 Net1Test.U16.wlan[0].radio receptionState:vector ETV
attr interpolationmode sample-hold
attr recordingmode vector
attr source receptionStateChanged
attr title "Radio reception state"
vector 241 Net1Test.U16.wlan[0].mac.dcf.channelAccess.contention stateChanged:vector ETV
attr enum IDLE,DEFER,IFS_AND_BACKOFF
attr interpolationmode none
attr recordingmode vector
attr title "contention state changed"
attr type enum
vector 242 Net1Test.U17.wlan[0].radio receptionState:vector ETV
attr interpolationmode sample-hold
attr recordingmode vector
attr source receptionStateChanged
attr title "Radio reception state"
vector 243 Net1Test.U17.wlan[0].mac.dcf.channelAccess.contention stateChanged:vector ETV
attr enum IDLE,DEFER,IFS_AND_BACKOFF
attr interpolationmode none
attr recordingmode vector
attr title "contention state changed"
attr type enum
vector 244 Net1Test.U18.wlan[0].radio receptionState:vector ETV
attr interpolationmode sample-hold
attr recordingmode vector
attr source receptionStateChanged
attr title "Radio reception state"
vector 245 Net1Test.U18.wlan[0].mac.dcf.channelAccess.contention stateChanged:vector ETV
attr enum IDLE,DEFER,IFS_AND_BACKOFF
attr interpolationmode none
attr recordingmode vector
attr title "contention state changed"
attr type enum
vector 246 Net1Test.U19.wlan[0].radio receptionState:vector ETV
attr interpolationmode sample-hold
attr recordingmode vector
attr source receptionStateChanged
attr title "Radio reception state"
vector 247 Net1Test.U19.wlan[0].mac.dcf.channelAccess.contention stateChanged:vector ETV
attr enum IDLE,DEFER,IFS_AND_BACKOFF
attr interpolationmode none
attr recordingmode vector
attr title "contention state changed"
attr type enum
vector 248 Net1Test.U20.wlan[0].radio receptionState:vector ETV
attr interpolationmode sample-hold
attr recordingmode vector
attr source receptionStateChanged
attr title "Radio reception state"
vector 249 Net1Test.U20.wlan[0].mac.dcf.channelAccess.contention stateChanged:vector ETV
attr enum IDLE,DEFER,IFS_AND_BACKOFF
attr interpolationmode none
attr recordingmode vector
attr title "contention state changed"
attr type enum
vector 250 Net1Test.U21.wlan[0].radio receptionState:vector ETV
attr interpolationmode sample-hold
attr recordingmode vector
attr source receptionStateChanged
attr title "Radio reception state"
vector 251 Net1Test.U21.wlan[0].mac.dcf.channelAccess.contention stateChanged:vector ETV
attr enum IDLE,DEFER,IFS_AND_BACKOFF
attr interpolationmode none
attr recordingmode vector
attr title "contention state changed"
attr type enum
vector 252 Net1Test.U22.wlan[0].radio receptionState:vector ETV
attr interpolationmode sample-hold
attr recordingmode vector
attr source receptionStateChanged
attr title "Radio reception state"
vector 253 Net1Test.U22.wlan[0].mac.dcf.channelAccess.contention stateChanged:vector ETV
attr enum IDLE,DEFER,IFS_AND_BACKOFF
attr interpolationmode none
attr recordingmode vector
attr title "contention state changed"
attr type enum
vector 254 Net1Test.U23.wlan[0].radio receptionState:vector ETV
attr interpolationmode sample-hold
attr recordingmode vector
attr source receptionStateChanged
attr title "Radio reception state"
vector 255 Net1Test.U23.wlan[0].mac.dcf.channelAccess.contention stateChanged:vector ETV
attr enum IDLE,DEFER,IFS_AND_BACKOFF
attr interpolationmode none
attr recordingmode vector
attr title "contention state changed"
attr type enum
vector 256 Net1Test.U24.wlan[0].radio receptionState:vector ETV
attr interpolationmode sample-hold
attr recordingmode vector
attr source receptionStateChanged
attr title "Radio reception state"
vector 257 Net1Test.U24.wlan[0].mac.dcf.channelAccess.contention stateChanged:vector ETV
attr enum IDLE,DEFER,IFS_AND_BACKOFF
attr interpolationmode none
attr recordingmode vector
attr title "contention state changed"
attr type enum
vector 258 Net1Test.U25.wlan[0].radio receptionState:vector ETV
attr interpolationmode sample-hold
attr recordingmode vector
attr source receptionStateChanged
attr title "Radio reception state"
vector 259 Net1Test.U25.wlan[0].mac.dcf.channelAccess.contention stateChanged:vector ETV
attr enum IDLE,DEFER,IFS_AND_BACKOFF
attr interpolationmode none
attr recordingmode vector
attr title "contention state changed"
attr type enum
vector 260 Net1Test.Source.wlan[0].mac.dcf.recoveryProcedure contentionWindowChanged:vector ETV
attr interpolationmode sample-hold
attr recordingmode vector
attr title "contention window"
vector 261 Net1Test.Destination.wlan[0].mac.dcf.recoveryProcedure contentionWindowChanged:vector ETV
attr interpolationmode sample-hold
attr recordingmode vector
attr title "contention window"
vector 262 Net1Test.U2.wlan[0].mac.dcf.recoveryProcedure contentionWindowChanged:vector ETV
attr interpolationmode sample-hold
attr recordingmode vector
attr title "contention window"
vector 263 Net1Test.U3.wlan[0].mac.dcf.recoveryProcedure contentionWindowChanged:vector ETV
attr interpolationmode sample-hold
attr recordingmode vector
attr title "contention window"
vector 264 Net1Test.U4.wlan[0].mac.dcf.recoveryProcedure contentionWindowChanged:vector ETV
attr interpolationmode sample-hold
attr recordingmode vector
attr title "contention window"
vector 265 Net1Test.U5.wlan[0].mac.dcf.recoveryProcedure contentionWindowChanged:vector ETV
attr interpolationmode sample-hold
attr recordingmode vector
attr title "contention window"
vector 266 Net1Test.U6.wlan[0].mac.dcf.recoveryProcedure contentionWindowChanged:vector ETV
attr interpolationmode sample-hold
attr recordingmode vector
attr title "contention window"
vector 267 Net1Test.U7.wlan[0].mac.dcf.recoveryProcedure contentionWindowChanged:vector ETV
attr interpolationmode sample-hold
attr recordingmode vector
attr title "contention window"
vector 268 Net1Test.U8.wlan[0].mac.dcf.recoveryProcedure contentionWindowChanged:vector ETV
attr interpolationmode sample-hold
attr recordingmode vector
attr title "contention window"
vector 269 Net1Test.U9.wlan[0].mac.dcf.recoveryProcedure contentionWindowChanged:vector ETV
attr interpolationmode sample-hold
attr recordingmode vector
attr title "contention window"
vector 270 Net1Test.U10.wlan[0].mac.dcf.recoveryProcedure contentionWindowChanged:vector ETV
attr interpolationmode sample-hold
attr recordingmode vector
attr title "contention window"
vector 271 Net1Test.U11.wlan[0].mac.dcf.recoveryProcedure contentionWindowChanged:vector ETV
attr interpolationmode sample-hold
attr recordingmode vector
attr title "contention window"
vector 272 Net1Test.U12.wlan[0].mac.dcf.recoveryProcedure contentionWindowChanged:vector ETV
attr interpolationmode sample-hold
attr recordingmode vector
attr title "contention window"
vector 273 Net1Test.U13.wlan[0].mac.dcf.recoveryProcedure contentionWindowChanged:vector ETV
attr interpolationmode sample-hold
attr recordingmode vector
attr title "contention window"
vector 274 Net1Test.U14.wlan[0].mac.dcf.recoveryProcedure contentionWindowChanged:vector ETV
attr interpolationmode sample-hold
attr recordingmode vector
attr title "contention window"
vector 275 Net1Test.U15.wlan[0].mac.dcf.recoveryProcedure contentionWindowChanged:vector ETV
attr interpolationmode sample-hold
attr recordingmode vector
attr title "contention window"
vector 276 Net1Test.U16.wlan[0].mac.dcf.recoveryProcedure contentionWindowChanged:vector ETV
attr interpolationmode sample-hold
attr recordingmode vector
attr title "contention window"
vector 277 Net1Test.U17.wlan[0].mac.dcf.recoveryProcedure contentionWindowChanged:vector ETV
attr interpolationmode sample-hold
attr recordingmode vector
attr title "contention window"
vector 278 Net1Test.U18.wlan[0].mac.dcf.recoveryProcedure contentionWindowChanged:vector ETV
attr interpolationmode sample-hold
attr recordingmode vector
attr title "contention window"
vector 279 Net1Test.U19.wlan[0].mac.dcf.recoveryProcedure contentionWindowChanged:vector ETV
attr interpolationmode sample-hold
attr recordingmode vector
attr title "contention window"
vector 280 Net1Test.U20.wlan[0].mac.dcf.recoveryProcedure contentionWindowChanged:vector ETV
attr interpolationmode sample-hold
attr recordingmode vector
attr title "contention window"
vector 281 Net1Test.U21.wlan[0].mac.dcf.recoveryProcedure contentionWindowChanged:vector ETV
attr interpolationmode sample-hold
attr recordingmode vector
attr title "contention window"
vector 282 Net1Test.U22.wlan[0].mac.dcf.recoveryProcedure contentionWindowChanged:vector ETV
attr interpolationmode sample-hold
attr recordingmode vector
attr title "contention window"
vector 283 Net1Test.U23.wlan[0].mac.dcf.recoveryProcedure contentionWindowChanged:vector ETV
attr interpolationmode sample-hold
attr recordingmode vector
attr title "contention window"
vector 284 Net1Test.U24.wlan[0].mac.dcf.recoveryProcedure contentionWindowChanged:vector ETV
attr interpolationmode sample-hold
attr recordingmode vector
attr title "contention window"
vector 285 Net1Test.U25.wlan[0].mac.dcf.recoveryProcedure contentionWindowChanged:vector ETV
attr interpolationmode sample-hold
attr recordingmode vector
attr title "contention window"
vector 286 Net1Test.U24.wlan[0].mac packetReceivedFromUpper:vector(packetBytes) ETV
attr interpolationmode none
attr recordingmode vector(packetBytes)
attr title "packets received from upper layer, packetBytes"
vector 287 Net1Test.U24.wlan[0].mac.dcf.channelAccess.pendingQueue incomingPacketLengths:vector ETV
attr interpolationmode none
attr recordingmode vector
attr source packetLength(packetPushStarted)
attr title "incoming packet lengths"
attr unit b
vector 288 Net1Test.U24.wlan[0].mac.dcf.channelAccess.pendingQueue incomingDataRate:vector ETV
attr interpolationmode linear
attr recordingmode vector
attr source throughput(packetPushStarted)
attr title "incoming datarate"
attr unit bps
vector 289 Net1Test.U24.wlan[0].mac.dcf.channelAccess.pendingQueue queueLength:vector ETV
attr autoWarmupFilter false
attr interpolationmode sample-hold
attr recordingmode vector
attr source "warmup(atomic(constant0(packetPushEnded) + count(packetPushStarted) - count(packetPulled) - count(packetRemoved) - count(packetDropped)))"
attr title "queue length"
attr unit pk
vector 290 Net1Test.U24.wlan[0].mac.dcf.channelAccess.pendingQueue queueBitLength:vector ETV
attr autoWarmupFilter false
attr interpolationmode sample-hold
attr recordingmode vector
attr source "warmup(atomic(constant0(packetPushEnded) + sum(packetLength(packetPushStarted)) - sum(packetLength(packetPulled)) - sum(packetLength(packetRemoved)) - sum(packetLength(packetDropped))))"
attr title "queue bit length"
attr unit b
vector 291 Net1Test.U24.wlan[0].mac.dcf.channelAccess.contention backoffPeriodGenerated:vector ETV
attr interpolationmode none
attr recordingmode vector
attr title "backoff periods"
vector 292 Net1Test.U24.wlan[0].mac.dcf.channelAccess.pendingQueue queueingTime:vector ETV
attr interpolationmode none
attr recordingmode vector
attr source queueingTime(packetPulled)
attr title "queueing times"
attr unit s
vector 293 Net1Test.U24.wlan[0].mac.dcf.channelAccess.pendingQueue outgoingPacketLengths:vector ETV
attr interpolationmode none
attr recordingmode vector
attr source packetLength(packetPulled)
attr title "outgoing packet lengths"
attr unit b
vector 294 Net1Test.U24.wlan[0].mac.dcf.channelAccess.pendingQueue outgoingDataRate:vector ETV
attr interpolationmode linear
attr recordingmode vector
attr source throughput(packetPulled)
attr title "outgoing datarate"
attr unit bps
vector 295 Net1Test.U24.wlan[0].mac.dcf datarateSelected:vector ETV
attr interpolationmode none
attr recordingmode vector
attr title "datarates selected"
vector 296 Net1Test.U24.wlan[0].mac packetSentToLower:vector(packetBytes) ETV
attr interpolationmode none
attr recordingmode vector(packetBytes)
attr title "packets sent to lower layer, packetBytes"
vector 297 Net1Test.U24.wlan[0].radio transmissionState:vector ETV
attr interpolationmode sample-hold
attr recordingmode vector
attr source transmissionStateChanged
attr title "Radio transmission state"
vector 298 Net1Test.U24.wlan[0].mac.dcf packetSentToPeer:vector(packetBytes) ETV
attr interpolationmode none
attr recordingmode vector(packetBytes)
attr title "packets sent, packetBytes"
vector 299 Net1Test.U24.wlan[0].mac.dcf packetSentToPeerMulticast:vector(packetBytes) ETV
attr interpolationmode none
attr recordingmode vector(packetBytes)
attr source ieee80211Multicast(packetSentToPeer)
attr title "packets sent: multicast, packetBytes"
vector 300 Net1Test.U24.wlan[0].mac.dcf packetSentToPeerWithoutRetry:vector(packetBytes) ETV
attr interpolationmode none
attr recordingmode vector(packetBytes)
attr source ieee80211NotRetry(packetSentToPeer)
attr title "packets sent: without retry, packetBytes"
vector 301 Net1Test.U24.wlan[0].mac.dcf.channelAccess.inProgressFrames queueingTime:vector ETV
attr interpolationmode none
attr recordingmode vector
attr source queueingTime(packetDequeued)
attr title "queueing times"
vector 302 Net1Test.U15.wlan[0].mac packetReceivedFromLower:vector(packetBytes) ETV
attr interpolationmode none
attr recordingmode vector(packetBytes)
attr title "packets received from lower layer, packetBytes"
vector 303 Net1Test.U15.wlan[0].mac.dcf packetReceivedFromPeer:vector(packetBytes) ETV
attr interpolationmode none
attr recordingmode vector(packetBytes)
attr title "packets received, packetBytes"
vector 304 Net1Test.U15.wlan[0].mac.dcf packetReceivedFromPeerMulticast:vector(packetBytes) ETV
attr interpolationmode none
attr recordingmode vector(packetBytes)
attr source ieee80211Multicast(packetReceivedFromPeer)
attr title "packets received: multicast, packetBytes"
vector 305 Net1Test.U15.wlan[0].mac.dcf packetReceivedFromPeerWithoutRetry:vector(packetBytes) ETV
attr interpolationmode none
attr recordingmode vector(packetBytes)
attr source ieee80211NotRetry(packetReceivedFromPeer)
attr title "packets received: without retry, packetBytes"
vector 306 Net1Test.U15.wlan[0].mac packetSentToUpper:vector(packetBytes) ETV
attr interpolationmode none
attr recordingmode vector(packetBytes)
attr title "packets sent to upper layer, packetBytes"
vector 307 Net1Test.U11.wlan[0].mac packetReceivedFromLower:vector(packetBytes) ETV
attr interpolationmode none
attr recordingmode vector(packetBytes)
attr title "packets received from lower layer, packetBytes"
vector 308 Net1Test.U11.wlan[0].mac.dcf packetReceivedFromPeer:vector(packetBytes) ETV
attr interpolationmode none
attr recordingmode vector(packetBytes)
attr title "packets received, packetBytes"
vector 309 Net1Test.U11.wlan[0].mac.dcf packetReceivedFromPeerMulticast:vector(packetBytes) ETV
attr interpolationmode none
attr recordingmode vector(packetBytes)
attr source ieee80211Multicast(packetReceivedFromPeer)
attr title "packets received: multicast, packetBytes"
vector 310 Net1Test.U11.wlan[0].mac.dcf packetReceivedFromPeerWithoutRetry:vector(packetBytes) ETV
attr interpolationmode none
attr recordingmode vector(packetBytes)
attr source ieee80211NotRetry(packetReceivedFromPeer)
attr title "packets received: without retry, packetBytes"
vector 311 Net1Test.U11.wlan[0].mac packetSentToUpper:vector(packetBytes) ETV
attr interpolationmode none
attr recordingmode vector(packetBytes)
attr title "packets sent to upper layer, packetBytes"
vector 312 Net1Test.U22.wlan[0].mac packetReceivedFromLower:vector(packetBytes) ETV
attr interpolationmode none
attr recordingmode vector(packetBytes)
attr title "packets received from lower layer, packetBytes"
vector 313 Net1Test.U22.wlan[0].mac.dcf packetReceivedFromPeer:vector(packetBytes) ETV
attr interpolationmode none
attr recordingmode vector(packetBytes)
attr title "packets received, packetBytes"
vector 314 Net1Test.U22.wlan[0].mac.dcf packetReceivedFromPeerMulticast:vector(packetBytes) ETV
attr interpolationmode none
attr recordingmode vector(packetBytes)
attr source ieee80211Multicast(packetReceivedFromPeer)
attr title "packets received: multicast, packetBytes"
vector 315 Net1Test.U22.wlan[0].mac.dcf packetReceivedFromPeerWithoutRetry:vector(packetBytes) ETV
attr interpolationmode none
attr recordingmode vector(packetBytes)
attr source ieee80211NotRetry(packetReceivedFromPeer)
attr title "packets received: without retry, packetBytes"
vector 316 Net1Test.U22.wlan[0].mac packetSentToUpper:vector(packetBytes) ETV
attr interpolationmode none
attr recordingmode vector(packetBytes)
attr title "packets sent to upper layer, packetBytes"
vector 317 Net1Test.U19.wlan[0].mac packetReceivedFromLower:vector(packetBytes) ETV
attr interpolationmode none
attr recordingmode vector(packetBytes)
attr title "packets received from lower layer, packetBytes"
vector 318 Net1Test.U19.wlan[0].mac.dcf packetReceivedFromPeer:vector(packetBytes) ETV
attr interpolationmode none
attr recordingmode vector(packetBytes)
attr title "packets received, packetBytes"
vector 319 Net1Test.U19.wlan[0].mac.dcf packetReceivedFromPeerMulticast:vector(packetBytes) ETV
attr interpolationmode none
attr recordingmode vector(packetBytes)
attr source ieee80211Multicast(packetReceivedFromPeer)
attr title "packets received: multicast, packetBytes"
vector 320 Net1Test.U19.wlan[0].mac.dcf packetReceivedFromPeerWithoutRetry:vector(packetBytes) ETV
attr interpolationmode none
attr recordingmode vector(packetBytes)
attr source ieee80211NotRetry(packetReceivedFromPeer)
attr title "packets received: without retry, packetBytes"
vector 321 Net1Test.U19.wlan[0].mac packetSentToUpper:vector(packetBytes) ETV
attr interpolationmode none
attr recordingmode vector(packetBytes)
attr title "packets sent to upper layer, packetBytes"
vector 322 Net1Test.U25.wlan[0].mac packetReceivedFromLower:vector(packetBytes) ETV
attr interpolationmode none
attr recordingmode vector(packetBytes)
attr title "packets received from lower layer, packetBytes"
vector 323 Net1Test.U25.wlan[0].mac.dcf packetReceivedFromPeer:vector(packetBytes) ETV
attr interpolationmode none
attr recordingmode vector(packetBytes)
attr title "packets received, packetBytes"
vector 324 Net1Test.U25.wlan[0].mac.dcf packetReceivedFromPeerMulticast:vector(packetBytes) ETV
attr interpolationmode none
attr recordingmode vector(packetBytes)
attr source ieee80211Multicast(packetReceivedFromPeer)
attr title "packets received: multicast, packetBytes"
vector 325 Net1Test.U25.wlan[0].mac.dcf packetReceivedFromPeerWithoutRetry:vector(packetBytes) ETV
attr interpolationmode none
attr recordingmode vector(packetBytes)
attr source ieee80211NotRetry(packetReceivedFromPeer)
attr title "packets received: without retry, packetBytes"
vector 326 Net1Test.U25.wlan[0].mac packetSentToUpper:vector(packetBytes) ETV
attr interpolationmode none
attr recordingmode vector(packetBytes)
attr title "packets sent to upper layer, packetBytes"
vector 327 Net1Test.U8.wlan[0].mac packetReceivedFromLower:vector(packetBytes) ETV
attr interpolationmode none
attr recordingmode vector(packetBytes)
attr title "packets received from lower layer, packetBytes"
vector 328 Net1Test.U8.wlan[0].mac.dcf packetReceivedFromPeer:vector(packetBytes) ETV
attr interpolationmode none
attr recordingmode vector(packetBytes)
attr title "packets received, packetBytes"
vector 329 Net1Test.U8.wlan[0].mac.dcf packetReceivedFromPeerMulticast:vector(packetBytes) ETV
attr interpolationmode none
attr recordingmode vector(packetBytes)
attr source ieee80211Multicast(packetReceivedFromPeer)
attr title "packets received: multicast, packetBytes"
vector 330 Net1Test.U8.wlan[0].mac.dcf packetReceivedFromPeerWithoutRetry:vector(packetBytes) ETV
attr interpolationmode none
attr recordingmode vector(packetBytes)
attr source ieee80211NotRetry(packetReceivedFromPeer)
attr title "packets received: without retry, packetBytes"
vector 331 Net1Test.U8.wlan[0].mac packetSentToUpper:vector(packetBytes) ETV
attr interpolationmode none
attr recordingmode vector(packetBytes)
attr title "packets sent to upper layer, packetBytes"
vector 332 Net1Test.U5.wlan[0].mac packetReceivedFromUpper:vector(packetBytes) ETV
attr interpolationmode none
attr recordingmode vector(packetBytes)
attr title "packets received from upper layer, packetBytes"
vector 333 Net1Test.U5.wlan[0].mac.dcf.channelAccess.pendingQueue incomingPacketLengths:vector ETV
attr interpolationmode none
attr recordingmode vector
attr source packetLength(packetPushStarted)
attr title "incoming packet lengths"
attr unit b
vector 334 Net1Test.U5.wlan[0].mac.dcf.channelAccess.pendingQueue incomingDataRate:vector ETV
attr interpolationmode linear
attr recordingmode vector
attr source throughput(packetPushStarted)
attr title "incoming datarate"
attr unit bps
vector 335 Net1Test.U5.wlan[0].mac.dcf.channelAccess.pendingQueue queueLength:vector ETV
attr autoWarmupFilter false
attr interpolationmode sample-hold
attr recordingmode vector
attr source "warmup(atomic(constant0(packetPushEnded) + count(packetPushStarted) - count(packetPulled) - count(packetRemoved) - count(packetDropped)))"
attr title "queue length"
attr unit pk
vector 336 Net1Test.U5.wlan[0].mac.dcf.channelAccess.pendingQueue queueBitLength:vector ETV
attr autoWarmupFilter false
attr interpolationmode sample-hold
attr recordingmode vector
attr source "warmup(atomic(constant0(packetPushEnded) + sum(packetLength(packetPushStarted)) - sum(packetLength(packetPulled)) - sum(packetLength(packetRemoved)) - sum(packetLength(packetDropped))))"
attr title "queue bit length"
attr unit b
vector 337 Net1Test.U5.wlan[0].mac.dcf.channelAccess.contention backoffPeriodGenerated:vector ETV
attr interpolationmode none
attr recordingmode vector
attr title "backoff periods"
vector 338 Net1Test.U5.wlan[0].mac.dcf.channelAccess.pendingQueue queueingTime:vector ETV
attr interpolationmode none
attr recordingmode vector
attr source queueingTime(packetPulled)
attr title "queueing times"
attr unit s
vector 339 Net1Test.U5.wlan[0].mac.dcf.channelAccess.pendingQueue outgoingPacketLengths:vector ETV
attr interpolationmode none
attr recordingmode vector
attr source packetLength(packetPulled)
attr title "outgoing packet lengths"
attr unit b
vector 340 Net1Test.U5.wlan[0].mac.dcf.channelAccess.pendingQueue outgoingDataRate:vector ETV
attr interpolationmode linear
attr recordingmode vector
attr source throughput(packetPulled)
attr title "outgoing datarate"
attr unit bps
vector 341 Net1Test.U5.wlan[0].mac.dcf datarateSelected:vector ETV
attr interpolationmode none
attr recordingmode vector
attr title "datarates selected"
vector 342 Net1Test.U5.wlan[0].mac packetSentToLower:vector(packetBytes) ETV
[...]
838	21985185 1276 325461 472269 82.531052567999 120.898852917833 42 0 608 12768 7762944
839	21986461 632 325461 472267 82.531052567999 120.898852917833 21 6 30 378 8362
840	21987093 630 325463 472269 82.531052567999 120.898852917833 21 0 0.000844185015 0.000844185015 7.1264833955055e-07
841	21987723 659 325463 472269 82.531052567999 120.898852917833 21 608 608 12768 7762944
842	21988382 7609 325463 472519 79.9 121 412 0 6080 133760 813260800
843	21995991 764 325463 472269 82.531052567999 120.898852917833 21 24000000 24000000 504000000 1.2096e+16
844	21996755 638 325463 472269 82.531052567999 120.898852917833 21 76 76 1596 121296
845	21997393 2468 325464 472298 82.531052567999 120.898906917833 84 0 2 84 126
846	21999861 638 325491 472297 82.531106567999 120.898906917833 21 76 76 1596 121296
847	22000499 638 325491 472297 82.531106567999 120.898906917833 21 76 76 1596 121296
848	22001137 638 325491 472297 82.531106567999 120.898906917833 21 76 76 1596 121296
849	22001775 743 325491 472297 82.531106567999 120.898906917833 21 5.4e-05 5.4e-05 0.001134 6.1236e-08
850	22002518 637 318918 466388 80.898676237556 119.371819498947 21 48 48 1008 48384
851	22003155 658 318918 466388 80.898676237556 119.371819498947 21 608 608 12768 7762944
852	22003813 7859 318918 472519 78.5 121 426 0 6080 133760 813260800
853	22011672 1232 318918 466390 80.898676237556 119.371819498947 42 0 1 21 21
854	22012904 1274 318918 466390 80.898676237556 119.371819498947 42 0 608 12768 7762944
855	22014178 631 318918 466388 80.898676237556 119.371819498947 21 3 31 385 9083
856	22014809 616 318920 466390 80.898676237556 119.371819498947 21 0 0 0 0
857	22015425 658 318920 466390 80.898676237556 119.371819498947 21 608 608 12768 7762944
858	22016083 7859 318920 472519 78.5 121 426 0 6080 133760 813260800
859	22023942 763 318920 466390 80.898676237556 119.371819498947 21 24000000 24000000 504000000 1.2096e+16
860	22024705 637 318920 466390 80.898676237556 119.371819498947 21 76 76 1596 121296
861	22025342 2464 318921 466419 80.898676237556 119.371873498947 84 0 2 84 126
862	22027806 637 318948 466418 80.898730237556 119.371873498947 21 76 76 1596 121296
863	22028443 637 318948 466418 80.898730237556 119.371873498947 21 76 76 1596 121296
864	22029080 637 318948 466418 80.898730237556 119.371873498947 21 76 76 1596 121296
865	22029717 742 318948 466418 80.898730237556 119.371873498947 21 5.4e-05 5.4e-05 0.001134 6.1236e-08
869	22030459 4898 318619 471910 80.754373260915 120.754314348056 161 14 14 2254 31556
870	22035357 4898 318619 471910 80.754373260915 120.754314348056 161 14 14 2254 31556
871	22040255 4898 318619 471910 80.754373260915 120.754314348056 161 14 14 2254 31556
872	22045153 4898 318619 471910 80.754373260915 120.754314348056 161 14 14 2254 31556
892	22050051 578 322084 467242 81.75141443871 119.538161370437 19 48 48 912 43776
893	22050629 597 322084 467242 81.75141443871 119.538161370437 19 608 608 11552 7023616
894	22051226 7497 322084 472519 80.5 121 406 0 6080 121600 739328000
895	22058723 1118 322084 467244 81.75141443871 119.538161370437 38 0 1 19 19
896	22059841 1156 322084 467244 81.75141443871 119.538161370437 38 0 608 11552 7023616
897	22060997 571 322084 467242 81.75141443871 119.538161370437 19 0 31 314 7108
898	22061568 559 322086 467244 81.75141443871 119.538161370437 19 0 0 0 0
899	22062127 597 322086 467244 81.75141443871 119.538161370437 19 608 608 11552 7023616
900	22062724 7497 322086 472519 80.5 121 406 0 6080 121600 739328000
901	22070221 692 322086 467244 81.75141443871 119.538161370437 19 24000000 24000000 456000000 1.0944e+16
902	22070913 578 322086 467244 81.75141443871 119.538161370437 19 76 76 1444 109744
903	22071491 2236 322087 467273 81.75141443871 119.538215370437 76 0 2 76 114
904	22073727 578 322114 467272 81.75146843871 119.538215370437 19 76 76 1444 109744
905	22074305 578 322114 467272 81.75146843871 119.538215370437 19 76 76 1444 109744
906	22074883 578 322114 467272 81.75146843871 119.538215370437 19 76 76 1444 109744
907	22075461 673 322114 467272 81.75146843871 119.538215370437 19 5.4e-05 5.4e-05 0.001026 5.5404e-08
908	22076134 577 321747 464217 81.534198606386 118.891710800584 19 48 48 912 43776
909	22076711 596 321747 464217 81.534198606386 118.891710800584 19 608 608 11552 7023616
910	22077307 7551 321747 472519 80.2 121 409 0 6080 121600 739328000
911	22084858 1116 321747 464219 81.534198606386 118.891710800584 38 0 1 19 19
912	22085974 1154 321747 464219 81.534198606386 118.891710800584 38 0 608 11552 7023616
913	22087128 570 321747 464217 81.534198606386 118.891710800584 19 4 31 257 4771
914	22087698 558 321749 464219 81.534198606386 118.891710800584 19 0 0 0 0
915	22088256 596 321749 464219 81.534198606386 118.891710800584 19 608 608 11552 7023616
916	22088852 7551 321749 472519 80.2 121 409 0 6080 121600 739328000
917	22096403 691 321749 464219 81.534198606386 118.891710800584 19 24000000 24000000 456000000 1.0944e+16
918	22097094 577 321749 464219 81.534198606386 118.891710800584 19 76 76 1444 109744
919	22097671 2232 321750 464248 81.534198606386 118.891764800584 76 0 2 76 114
920	22099903 577 321777 464247 81.534252606386 118.891764800584 19 76 76 1444 109744
921	22100480 577 321777 464247 81.534252606386 118.891764800584 19 76 76 1444 109744
922	22101057 577 321777 464247 81.534252606386 118.891764800584 19 76 76 1444 109744
923	22101634 672 321777 464247 81.534252606386 118.891764800584 19 5.4e-05 5.4e-05 0.001026 5.5404e-08
924	22102306 2315 320850 472160 81.356837302286 120.817751693844 76 76 76 5776 438976
925	22104621 2315 320850 472160 81.356837302286 120.817751693844 76 76 76 5776 438976
926	22106936 2315 320850 472160 81.356837302286 120.817751693844 76 76 76 5776 438976
927	22109251 2315 320850 472160 81.356837302286 120.817751693844 76 76 76 5776 438976
928	22111566 2315 320850 472160 81.356837302286 120.817751693844 76 48 48 3648 175104
929	22113881 611 327529 469572 83.006561221087 120.213114970363 20 48 48 960 46080
930	22114492 631 327529 469572 83.006561221087 120.213114970363 20 608 608 12160 7393280
931	22115123 7572 327529 472519 80.1 121 410 0 6080 127680 776294400
932	22122695 1182 327529 469574 83.006561221087 120.213114970363 40 0 1 20 20
933	22123877 1222 327529 469574 83.006561221087 120.213114970363 40 0 608 12160 7393280
934	22125099 608 327529 469572 83.006561221087 120.213114970363 20 1 31 439 11531
935	22125707 591 327531 469574 83.006561221087 120.213114970363 20 0 0 0 0
936	22126298 631 327531 469574 83.006561221087 120.213114970363 20 608 608 12160 7393280
937	22126929 7572 327531 472519 80.1 121 410 0 6080 127680 776294400
938	22134501 731 327531 469574 83.006561221087 120.213114970363 20 24000000 24000000 480000000 1.152e+16
939	22135232 611 327531 469574 83.006561221087 120.213114970363 20 76 76 1520 115520
940	22135843 2364 327532 469603 83.006561221087 120.213168970363 80 0 2 80 120
941	22138207 611 327559 469602 83.006615221087 120.213168970363 20 76 76 1520 115520
942	22138818 611 327559 469602 83.006615221087 120.213168970363 20 76 76 1520 115520
943	22139429 611 327559 469602 83.006615221087 120.213168970363 20 76 76 1520 115520
944	22140040 711 327559 469602 83.006615221087 120.213168970363 20 5.4e-05 5.4e-05 0.00108 5.832e-08
945	22140751 11939 318080 471435 80.750782617877 120.751731705018 382 14 1104 185586 197820532
946	22152690 1795 319123 469620 80.960247525535 120.213169585514 59 76 76 4484 340784
947	22154485 1795 319123 469620 80.960247525535 120.213169585514 59 76 76 4484 340784
948	22156280 1795 319123 469620 80.960247525535 120.213169585514 59 76 76 4484 340784
949	22158075 1795 319123 469620 80.960247525535 120.213169585514 59 48 48 2832 135936
950	22159870 579 320973 466299 81.442663267723 119.272813098974 19 48 48 912 43776
951	22160449 598 320973 466299 81.442663267723 119.272813098974 19 608 608 11552 7023616
952	22161047 7781 320973 472519 78.9 121 422 0 6080 121600 739328000
953	22168828 1120 320973 466301 81.442663267723 119.272813098974 38 0 1 19 19
954	22169948 1158 320973 466301 81.442663267723 119.272813098974 38 0 608 11552 7023616
955	22171106 576 320973 466299 81.442663267723 119.272813098974 19 6 31 404 9890
956	22171682 560 320975 466301 81.442663267723 119.272813098974 19 0 0 0 0
957	22172242 598 320975 466301 81.442663267723 119.272813098974 19 608 608 11552 7023616
958	22172840 7781 320975 472519 78.9 121 422 0 6080 121600 739328000
959	22180621 693 320975 466301 81.442663267723 119.272813098974 19 24000000 24000000 456000000 1.0944e+16
960	22181314 579 320975 466301 81.442663267723 119.272813098974 19 76 76 1444 109744
961	22181893 2240 320976 466330 81.442663267723 119.272867098974 76 0 2 76 114
962	22184133 579 321003 466329 81.442717267723 119.272867098974 19 76 76 1444 109744
963	22184712 579 321003 466329 81.442717267723 119.272867098974 19 76 76 1444 109744
964	22185291 579 321003 466329 81.442717267723 119.272867098974 19 76 76 1444 109744
965	22185870 674 321003 466329 81.442717267723 119.272867098974 19 5.4e-05 5.4e-05 0.001026 5.5404e-08
966	22186544 608 321840 464140 81.59138947446 118.881428889464 20 48 48 960 46080
967	22187152 628 321840 464140 81.59138947446 118.881428889464 20 608 608 12160 7393280
968	22187780 7588 321840 472519 80 121 411 0 6080 127680 776294400
969	22195368 1176 321840 464142 81.59138947446 118.881428889464 40 0 1 20 20
970	22196544 1216 321840 464142 81.59138947446 118.881428889464 40 0 608 12160 7393280
971	22197760 600 321840 464140 81.59138947446 118.881428889464 20 0 31 307 6497
972	22198360 588 321842 464142 81.59138947446 118.881428889464 20 0 0 0 0
973	22198948 628 321842 464142 81.59138947446 118.881428889464 20 608 608 12160 7393280
974	22199576 7588 321842 472519 80 121 411 0 6080 127680 776294400
975	22207164 6589 318548 471839 80.754328491762 120.754269578903 181 24000000 24000000 4344000000 1.04256e+17
976	22213753 5503 318579 471870 80.754338491762 120.754279578903 181 14 76 3774 147076
977	22219256 21288 318580 471901 80.754338491762 120.754313578903 724 0 2 724 1086
978	22240544 5503 318609 471900 80.754372491762 120.754313578903 181 14 76 3774 147076
979	22246047 608 321870 464170 81.59144347446 118.881482889464 20 76 76 1520 115520
980	22246655 5503 318609 471900 80.754372491762 120.754313578903 181 14 76 3774 147076
981	22252158 708 321870 464170 81.59144347446 118.881482889464 20 5.4e-05 5.4e-05 0.00108 5.832e-08
999	22252866 4895 318609 471900 80.754372491762 120.754313578903 161 14 14 2254 31556
1000	22257761 5378 318548 471839 80.754328491762 120.754269578903 161 1104 1104 177744 196229376
1001	22263139 5378 318551 471842 80.754328491762 120.754269578903 161 1008 1008 162288 163586304
1002	22268517 5378 318552 471843 80.754328491762 120.754269578903 161 1000 1000 161000 161000000
1003	22273895 8472 318552 472519 80.6 121 405 0 80000 12960000 1036800000000
1004	22282367 6988 318552 471843 80.754328491762 120.754269578903 161 0.002629184205 0.005421184205 0.579539125711 0.0021182613337754
1005	22289355 5217 318552 471843 80.754328491762 120.754269578903 161 315 475 63595 25467785
1006	22294572 597 319085 465978 80.960193105973 119.253176319876 19 48 48 912 43776
1007	22295169 616 319085 465978 80.960193105973 119.253176319876 19 608 608 11552 7023616
1008	22295785 8167 319085 472519 79.1 121 420 0 6080 121600 739328000
1009	22303952 1156 319085 465980 80.960193105973 119.253176319876 38 0 1 19 19
1010	22305108 1194 319085 465980 80.960193105973 119.253176319876 38 0 608 11552 7023616
1011	22306302 591 319085 465978 80.960193105973 119.253176319876 19 1 30 257 4791
1012	22306893 578 319087 465980 80.960193105973 119.253176319876 19 0 0 0 0
1013	22307471 616 319087 465980 80.960193105973 119.253176319876 19 608 608 11552 7023616
1014	22308087 8167 319087 472519 79.1 121 420 0 6080 121600 739328000
1015	22316254 711 319087 465980 80.960193105973 119.253176319876 19 24000000 24000000 456000000 1.0944e+16
1016	22316965 597 319087 465980 80.960193105973 119.253176319876 19 76 76 1444 109744
1017	22317562 2312 319088 466009 80.960193105973 119.253230319876 76 0 2 76 114
1018	22319874 597 319115 466008 80.960247105973 119.253230319876 19 76 76 1444 109744
1019	22320471 597 319115 466008 80.960247105973 119.253230319876 19 76 76 1444 109744
1020	22321068 597 319115 466008 80.960247105973 119.253230319876 19 76 76 1444 109744
1021	22321665 692 319115 466008 80.960247105973 119.253230319876 19 5.4e-05 5.4e-05 0.001026 5.5404e-08
1022	22322357 661 328462 471947 83.437662795183 120.767786147536 21 48 48 1008 48384
1023	22323018 682 328462 471947 83.437662795183 120.767786147536 21 608 608 12768 7762944
1024	22323700 7890 328462 472519 80.6 121 405 0 6080 133760 813260800
1025	22331590 1280 328462 471949 83.437662795183 120.767786147536 42 0 1 21 21
1026	22332870 1322 328462 471949 83.437662795183 120.767786147536 42 0 608 12768 7762944
1027	22334192 652 328462 471947 83.437662795183 120.767786147536 21 0 31 261 4781
1028	22334844 640 328464 471949 83.437662795183 120.767786147536 21 0 0 0 0
1029	22335484 682 328464 471949 83.437662795183 120.767786147536 21 608 608 12768 7762944
1030	22336166 7890 328464 472519 80.6 121 405 0 6080 133760 813260800
1031	22344056 787 328464 471949 83.437662795183 120.767786147536 21 24000000 24000000 504000000 1.2096e+16
1032	22344843 661 328464 471949 83.437662795183 120.767786147536 21 76 76 1596 121296
1033	22345504 2560 328465 471978 83.437662795183 120.767840147536 84 0 2 84 126
1034	22348064 661 328492 471977 83.437716795183 120.767840147536 21 76 76 1596 121296
1035	22348725 661 328492 471977 83.437716795183 120.767840147536 21 76 76 1596 121296
1036	22349386 661 328492 471977 83.437716795183 120.767840147536 21 76 76 1596 121296
1037	22350047 766 328492 471977 83.437716795183 120.767840147536 21 5.4e-05 5.4e-05 0.001134 6.1236e-08
1038	22350813 566 322811 471185 81.820982072037 120.702297534793 18 48 48 864 41472
1039	22351379 584 322811 471185 81.820982072037 120.702297534793 18 608 608 10944 6653952
1040	22351963 8012 322811 472519 79.9 121 412 0 6080 115520 702361600
1041	22359975 1096 322811 471187 81.820982072037 120.702297534793 36 0 1 18 18
1042	22361071 1132 322811 471187 81.820982072037 120.702297534793 36 0 608 10944 6653952
1043	22362203 562 322811 471185 81.820982072037 120.702297534793 18 0 30 304 6598
1044	22362765 548 322813 471187 81.820982072037 120.702297534793 18 0 0 0 0
1045	22363313 584 322813 471187 81.820982072037 120.702297534793 18 608 608 10944 6653952
1046	22363897 8012 322813 472519 79.9 121 412 0 6080 115520 702361600
1047	22371909 674 322813 471187 81.820982072037 120.702297534793 18 24000000 24000000 432000000 1.0368e+16
1048	22372583 566 322813 471187 81.820982072037 120.702297534793 18 76 76 1368 103968
1049	22373149 2192 322814 471216 81.820982072037 120.702351534793 72 0 2 72 108
1050	22375341 566 322841 471215 81.821036072037 120.702351534793 18 76 76 1368 103968
1051	22375907 566 322841 471215 81.821036072037 120.702351534793 18 76 76 1368 103968
1052	22376473 566 322841 471215 81.821036072037 120.702351534793 18 76 76 1368 103968
1053	22377039 656 322841 471215 81.821036072037 120.702351534793 18 5.4e-05 5.4e-05 0.000972 5.2488e-08
1054	22377695 628 320807 472117 81.356782746034 120.817697137592 20 48 48 960 46080
1055	22378323 648 320807 472117 81.356782746034 120.817697137592 20 608 608 12160 7393280
1056	22378971 8037 320807 472519 79.8 121 413 0 6080 127680 776294400
1057	22387008 1216 320807 472119 81.356782746034 120.817697137592 40 0 1 20 20
1058	22388224 1256 320807 472119 81.356782746034 120.817697137592 40 0 608 12160 7393280
1059	22389480 623 320807 472117 81.356782746034 120.817697137592 20 0 29 322 6674
1060	22390103 608 320809 472119 81.356782746034 120.817697137592 20 0 0 0 0
1061	22390711 648 320809 472119 81.356782746034 120.817697137592 20 608 608 12160 7393280
1062	22391359 8037 320809 472519 79.8 121 413 0 6080 127680 776294400
1063	22399396 748 320809 472119 81.356782746034 120.817697137592 20 24000000 24000000 480000000 1.152e+16
1064	22400144 628 320809 472119 81.356782746034 120.817697137592 20 76 76 1520 115520
1065	22400772 2432 320810 472148 81.356782746034 120.817751137592 80 0 2 80 120
1066	22403204 628 320837 472147 81.356836746034 120.817751137592 20 76 76 1520 115520
1067	22403832 628 320837 472147 81.356836746034 120.817751137592 20 76 76 1520 115520
1068	22404460 628 320837 472147 81.356836746034 120.817751137592 20 76 76 1520 115520
1069	22405088 728 320837 472147 81.356836746034 120.817751137592 20 5.4e-05 5.4e-05 0.00108 5.832e-08
1070	22405816 6017 318017 471308 80.750738090751 120.750839177892 181 48 1076 174196 186448016
1071	22411833 6037 318017 471308 80.750738090751 120.750839177892 181 608 8832 1434112 12566073344
1072	22417870 8523 318017 472519 80.6 121 405 0 94400 14429440 1267629670400
1073	22426393 11028 318017 471398 80.750738090751 120.751333177892 362 0 1 181 181
1074	22437421 11551 318017 471398 80.750738090751 120.751333177892 362 0 8832 1434112 12566073344
1075	22448972 5674 318017 471308 80.750738090751 120.750839177892 182 0 31 2903 61667
1076	22454646 6637 318107 471398 80.751032090751 120.751333177892 181 0 0.000714 0.065654 3.2451556e-05
1077	22461283 6037 318107 471398 80.751032090751 120.751333177892 181 608 8832 1434112 12566073344
1078	22467320 8523 318107 472519 80.6 121 405 0 94400 14429440 1267629670400
1079	22475843 12848 318013 471398 80.750738090751 120.751333177892 343 24000000 24000000 8232000000 1.97568e+17
1080	22488691 11114 318038 471398 80.750748090751 120.751333177892 343 14 1104 182622 197595268
1081	22499805 41788 318039 471427 80.750748090751 120.751731177892 1372 0 2 1372 2058
1082	22541593 11114 318071 471426 80.750782090751 120.751731177892 343 14 1104 182622 197595268
1083	22552707 631 326790 468537 82.839303114039 119.923758945014 20 76 76 1520 115520
1084	22553338 11081 318071 471426 80.750782090751 120.751731177892 342 14 1104 181518 196376452
1085	22564419 7724 318221 471512 80.751475176695 120.751776263836 181 5.4e-05 0.001155085944 0.073128836984 3.2804568141286e-05
1087	22572143 10483 318071 471426 80.750782090751 120.751731177892 323 14 1104 181102 197479748
1088	22582626 15651 318144 471497 80.751430617877 120.751775705018 483 0 4.4e-05 0.007084 3.11696e-07
1089	22598277 10434 318080 471435 80.750782617877 120.751731705018 322 14 1104 179998 196260932
1090	22608711 10434 318080 471435 80.750782617877 120.751731705018 322 14 1104 179998 196260932
1091	22619145 10467 318080 471435 80.750782617877 120.751731705018 323 14 1104 181102 197479748
1092	22629612 10434 318080 471435 80.750782617877 120.751731705018 322 14 1104 179998 196260932
1093	22640046 10447 318013 471512 80.750738090751 120.751776263836 322 14 1104 179998 196260932
1098	22650493 33 350684 350684 89.252251774828 89.252251774828 1 1104 1104 1104 1218816
1099	22650526 31 350644 350644 89.251923943009 89.251923943009 1 76 76 76 5776
1100	22650557 31 350646 350646 89.251923949875 89.251923949875 1 76 76 76 5776
1101	22650588 31 350648 350648 89.251924066243 89.251924066243 1 76 76 76 5776
1102	22650619 33 350688 350688 89.252251973282 89.252251973282 1 1104 1104 1104 1218816
1105	22650652 66 322162 350678 81.751624831497 89.252251605709 2 1104 1104 2208 2437632
1107	22650718 31 322119 322119 81.751468994962 81.751468994962 1 76 76 76 5776
1110	22650749 65 350680 402056 89.252251669374 102.659391737131 2 76 1104 1180 1224592
1111	22650814 33 350737 350737 89.253863152823 89.253863152823 1 1104 1104 1104 1218816
1112	22650847 33 350754 350754 89.253863973282 89.253863973282 1 1104 1104 1104 1218816
1113	22650880 33 322154 322154 81.751624569287 81.751624569287 1 1104 1104 1104 1218816
1114	22650913 65 322158 402089 81.751624668871 102.659429654146 2 76 1104 1180 1224592
1115	22650978 33 322212 322212 81.752336042161 81.752336042161 1 1104 1104 1104 1218816
1116	22651011 33 322223 322223 81.752336585133 81.752336585133 1 1104 1104 1104 1218816
1117	22651044 22860 472519 472519 0.1 121 1210 0 0 0 0

