file 21322673 1731033899                                        
version 3
run Gpsr_Moblity_0mps-1-20241108-09:44:57-46110
attr configname Gpsr_Moblity_0mps
attr datetime 20241108-09:44:57
attr datetimef 20241108-094457
attr experiment Gpsr_Moblity_0mps
attr inifile Net1Test.ini
attr iterationvars ""
attr iterationvarsd ""
attr iterationvarsf ""
attr measurement ""
attr network Net1Test
attr processid 46110
attr repetition 1
attr replication #1
attr resultdir results
attr runnumber 1
attr seedset 1
config image-path ../../inet4.4/images
config extends "StationaryMobility, Gpsr"
config *.*.mobility.typename StationaryMobility
config *.*.routing.typename Gpsr
config *.*.routing.beaconInterval 2s
config network Net1Test
config sim-time-limit 121s
config repeat 3
config **.wlan[*].radio.typename Ieee80211ScalarRadio
config **.wlan[*].bitrate 24Mbps
config **.wlan[*].radio.transmitter.power 3dBm
config *.Destination.wlan[*].radio.displayCommunicationRange true
config *.Source.wlan[*].radio.displayCommunicationRange true
config *.U3.wlan[*].radio.displayCommunicationRange true
config *.radioMedium.pathLoss.typename FreeSpacePathLoss
config *.visualizer.osgVisualizer.typename IntegratedOsgVisualizer
config *.visualizer.osgVisualizer.sceneVisualizer.clearColor "\"skyblue\""
config *.visualizer.osgVisualizer.sceneVisualizer.sceneImage "\"showcases/desert\""
config *.visualizer.osgVisualizer.sceneVisualizer.sceneImageSize 6000m
config *.visualizer.osgVisualizer.sceneVisualizer.axisLength 6200m
config *.visualizer.osgVisualizer.sceneVisualizer.sceneMinX -1000m
config *.visualizer.osgVisualizer.sceneVisualizer.sceneMinY -1000m
config *.visualizer.osgVisualizer.sceneVisualizer.sceneMinZ 100m
config *.visualizer.osgVisualizer.sceneVisualizer.sceneMaxX 6100m
config *.visualizer.osgVisualizer.sceneVisualizer.sceneMaxY 6100m
config *.visualizer.osgVisualizer.sceneVisualizer.sceneMaxZ 1000m
config *.visualizer.*.networkRouteVisualizer.displayRoutes true
config *.visualizer.*.networkRouteVisualizer[0].packetFilter "\"UDP*\""
config *.visualizer.*.infoVisualizer.modules "\"*.*.app[0]\""
config *.visualizer.*.infoVisualizer.format "\"%t\""
config *.visualizer.*.infoVisualizer.placementHint "\"topCenter\""
config *.Source.numApps 1
config *.Source.app[0].typename UdpBasicApp
config *.Source.app[0].destAddresses "\"Destination\""
config *.Source.app[0].destPort 1000
config *.Source.app[0].sendInterval normal(250ms,10us)
config *.Source.app[0].startTime 2s
config *.Source.app[0].messageLength 1000Byte
config *.Source.app[0].packetName "\"UDPdata\""
config *.Destination.numApps 1
config *.Destination.app[0].typename UdpSink
config *.Destination.app[0].localPort 1000
config *.*.mobility.constraintAreaMinX 0m
config *.*.mobility.constraintAreaMinY 0m
config *.*.mobility.constraintAreaMinZ 0m
config *.*.mobility.constraintAreaMaxX 1000m
config *.*.mobility.constraintAreaMaxY 7500m
config *.*.mobility.constraintAreaMaxZ 0m

vector 0 Net1Test.Source.wlan[0].mac.dcf frameSequenceActive:vector ETV
attr autoWarmupFilter false
attr interpolationmode sample-hold
attr recordingmode vector
attr source warmup(count(frameSequenceStarted)-count(frameSequenceFinished))
attr title "frame sequence active"
vector 1 Net1Test.Source.wlan[0].mac.dcf.channelAccess.inProgressFrames queueLength:vector ETV
attr autoWarmupFilter false
attr interpolationmode sample-hold
attr recordingmode vector
attr source "warmup(count(packetEnqueued) - count(packetDequeued))"
attr title "queue length"
vector 2 Net1Test.Source.wlan[0].mac.dcf.channelAccess.contention backoffActive:vector ETV
attr autoWarmupFilter false
attr interpolationmode sample-hold
attr recordingmode vector
attr source warmup(count(backoffStarted)-count(backoffStopped))
attr title "backoff active"
vector 3 Net1Test.Source.udp passedUpPk:vector(count) ETV
attr interpolationmode none
attr recordingmode vector(count)
attr source packetSentToUpper
attr title "packets passed up, count"
vector 4 Net1Test.Source.udp droppedPkWrongPort:vector(count) ETV
attr interpolationmode none
attr recordingmode vector(count)
attr source packetDropReasonIsNoPortFound(packetDropped)
attr title "packets dropped (wrong port), count"
vector 5 Net1Test.Source.udp droppedPkBadChecksum:vector(count) ETV
attr interpolationmode none
attr recordingmode vector(count)
attr source packetDropReasonIsIncorrectlyReceived(packetDropped)
attr title "packets dropped (checksum error), count"
vector 6 Net1Test.Destination.wlan[0].mac.dcf frameSequenceActive:vector ETV
attr autoWarmupFilter false
attr interpolationmode sample-hold
attr recordingmode vector
attr source warmup(count(frameSequenceStarted)-count(frameSequenceFinished))
attr title "frame sequence active"
vector 7 Net1Test.Destination.wlan[0].mac.dcf.channelAccess.inProgressFrames queueLength:vector ETV
attr autoWarmupFilter false
attr interpolationmode sample-hold
attr recordingmode vector
attr source "warmup(count(packetEnqueued) - count(packetDequeued))"
attr title "queue length"
vector 8 Net1Test.Destination.wlan[0].mac.dcf.channelAccess.contention backoffActive:vector ETV
attr autoWarmupFilter false
attr interpolationmode sample-hold
attr recordingmode vector
attr source warmup(count(backoffStarted)-count(backoffStopped))
attr title "backoff active"
vector 9 Net1Test.Destination.udp passedUpPk:vector(count) ETV
attr interpolationmode none
attr recordingmode vector(count)
attr source packetSentToUpper
attr title "packets passed up, count"
vector 10 Net1Test.Destination.udp droppedPkWrongPort:vector(count) ETV
attr interpolationmode none
attr recordingmode vector(count)
attr source packetDropReasonIsNoPortFound(packetDropped)
attr title "packets dropped (wrong port), count"
vector 11 Net1Test.Destination.udp droppedPkBadChecksum:vector(count) ETV
attr interpolationmode none
attr recordingmode vector(count)
attr source packetDropReasonIsIncorrectlyReceived(packetDropped)
attr title "packets dropped (checksum error), count"
vector 12 Net1Test.U2.wlan[0].mac.dcf frameSequenceActive:vector ETV
attr autoWarmupFilter false
attr interpolationmode sample-hold
attr recordingmode vector
attr source warmup(count(frameSequenceStarted)-count(frameSequenceFinished))
attr title "frame sequence active"
vector 13 Net1Test.U2.wlan[0].mac.dcf.channelAccess.inProgressFrames queueLength:vector ETV
attr autoWarmupFilter false
attr interpolationmode sample-hold
attr recordingmode vector
attr source "warmup(count(packetEnqueued) - count(packetDequeued))"
attr title "queue length"
vector 14 Net1Test.U2.wlan[0].mac.dcf.channelAccess.contention backoffActive:vector ETV
attr autoWarmupFilter false
attr interpolationmode sample-hold
attr recordingmode vector
attr source warmup(count(backoffStarted)-count(backoffStopped))
attr title "backoff active"
vector 15 Net1Test.U2.udp passedUpPk:vector(count) ETV
attr interpolationmode none
attr recordingmode vector(count)
attr source packetSentToUpper
attr title "packets passed up, count"
vector 16 Net1Test.U2.udp droppedPkWrongPort:vector(count) ETV
attr interpolationmode none
attr recordingmode vector(count)
attr source packetDropReasonIsNoPortFound(packetDropped)
attr title "packets dropped (wrong port), count"
vector 17 Net1Test.U2.udp droppedPkBadChecksum:vector(count) ETV
attr interpolationmode none
attr recordingmode vector(count)
attr source packetDropReasonIsIncorrectlyReceived(packetDropped)
attr title "packets dropped (checksum error), count"
vector 18 Net1Test.U3.wlan[0].mac.dcf frameSequenceActive:vector ETV
attr autoWarmupFilter false
attr interpolationmode sample-hold
attr recordingmode vector
attr source warmup(count(frameSequenceStarted)-count(frameSequenceFinished))
attr title "frame sequence active"
vector 19 Net1Test.U3.wlan[0].mac.dcf.channelAccess.inProgressFrames queueLength:vector ETV
attr autoWarmupFilter false
attr interpolationmode sample-hold
attr recordingmode vector
attr source "warmup(count(packetEnqueued) - count(packetDequeued))"
attr title "queue length"
vector 20 Net1Test.U3.wlan[0].mac.dcf.channelAccess.contention backoffActive:vector ETV
attr autoWarmupFilter false
attr interpolationmode sample-hold
attr recordingmode vector
attr source warmup(count(backoffStarted)-count(backoffStopped))
attr title "backoff active"
vector 21 Net1Test.U3.udp passedUpPk:vector(count) ETV
attr interpolationmode none
attr recordingmode vector(count)
attr source packetSentToUpper
attr title "packets passed up, count"
vector 22 Net1Test.U3.udp droppedPkWrongPort:vector(count) ETV
attr interpolationmode none
attr recordingmode vector(count)
attr source packetDropReasonIsNoPortFound(packetDropped)
attr title "packets dropped (wrong port), count"
vector 23 Net1Test.U3.udp droppedPkBadChecksum:vector(count) ETV
attr interpolationmode none
attr recordingmode vector(count)
attr source packetDropReasonIsIncorrectlyReceived(packetDropped)
attr title "packets dropped (checksum error), count"
vector 24 Net1Test.U4.wlan[0].mac.dcf frameSequenceActive:vector ETV
attr autoWarmupFilter false
attr interpolationmode sample-hold
attr recordingmode vector
attr source warmup(count(frameSequenceStarted)-count(frameSequenceFinished))
attr title "frame sequence active"
vector 25 Net1Test.U4.wlan[0].mac.dcf.channelAccess.inProgressFrames queueLength:vector ETV
attr autoWarmupFilter false
attr interpolationmode sample-hold
attr recordingmode vector
attr source "warmup(count(packetEnqueued) - count(packetDequeued))"
attr title "queue length"
vector 26 Net1Test.U4.wlan[0].mac.dcf.channelAccess.contention backoffActive:vector ETV
attr autoWarmupFilter false
attr interpolationmode sample-hold
attr recordingmode vector
attr source warmup(count(backoffStarted)-count(backoffStopped))
attr title "backoff active"
vector 27 Net1Test.U4.udp passedUpPk:vector(count) ETV
attr interpolationmode none
attr recordingmode vector(count)
attr source packetSentToUpper
attr title "packets passed up, count"
vector 28 Net1Test.U4.udp droppedPkWrongPort:vector(count) ETV
attr interpolationmode none
attr recordingmode vector(count)
attr source packetDropReasonIsNoPortFound(packetDropped)
attr title "packets dropped (wrong port), count"
vector 29 Net1Test.U4.udp droppedPkBadChecksum:vector(count) ETV
attr interpolationmode none
attr recordingmode vector(count)
attr source packetDropReasonIsIncorrectlyReceived(packetDropped)
attr title "packets dropped (checksum error), count"
vector 30 Net1Test.U5.wlan[0].mac.dcf frameSequenceActive:vector ETV
attr autoWarmupFilter false
attr interpolationmode sample-hold
attr recordingmode vector
attr source warmup(count(frameSequenceStarted)-count(frameSequenceFinished))
attr title "frame sequence active"
vector 31 Net1Test.U5.wlan[0].mac.dcf.channelAccess.inProgressFrames queueLength:vector ETV
attr autoWarmupFilter false
attr interpolationmode sample-hold
attr recordingmode vector
attr source "warmup(count(packetEnqueued) - count(packetDequeued))"
attr title "queue length"
vector 32 Net1Test.U5.wlan[0].mac.dcf.channelAccess.contention backoffActive:vector ETV
attr autoWarmupFilter false
attr interpolationmode sample-hold
attr recordingmode vector
attr source warmup(count(backoffStarted)-count(backoffStopped))
attr title "backoff active"
vector 33 Net1Test.U5.udp passedUpPk:vector(count) ETV
attr interpolationmode none
attr recordingmode vector(count)
attr source packetSentToUpper
attr title "packets passed up, count"
vector 34 Net1Test.U5.udp droppedPkWrongPort:vector(count) ETV
attr interpolationmode none
attr recordingmode vector(count)
attr source packetDropReasonIsNoPortFound(packetDropped)
attr title "packets dropped (wrong port), count"
vector 35 Net1Test.U5.udp droppedPkBadChecksum:vector(count) ETV
attr interpolationmode none
attr recordingmode vector(count)
attr source packetDropReasonIsIncorrectlyReceived(packetDropped)
attr title "packets dropped (checksum error), count"
vector 36 Net1Test.U6.wlan[0].mac.dcf frameSequenceActive:vector ETV
attr autoWarmupFilter false
attr interpolationmode sample-hold
attr recordingmode vector
attr source warmup(count(frameSequenceStarted)-count(frameSequenceFinished))
attr title "frame sequence active"
vector 37 Net1Test.U6.wlan[0].mac.dcf.channelAccess.inProgressFrames queueLength:vector ETV
attr autoWarmupFilter false
attr interpolationmode sample-hold
attr recordingmode vector
attr source "warmup(count(packetEnqueued) - count(packetDequeued))"
attr title "queue length"
vector 38 Net1Test.U6.wlan[0].mac.dcf.channelAccess.contention backoffActive:vector ETV
attr autoWarmupFilter false
attr interpolationmode sample-hold
attr recordingmode vector
attr source warmup(count(backoffStarted)-count(backoffStopped))
attr title "backoff active"
vector 39 Net1Test.U6.udp passedUpPk:vector(count) ETV
attr interpolationmode none
attr recordingmode vector(count)
attr source packetSentToUpper
attr title "packets passed up, count"
vector 40 Net1Test.U6.udp droppedPkWrongPort:vector(count) ETV
attr interpolationmode none
attr recordingmode vector(count)
attr source packetDropReasonIsNoPortFound(packetDropped)
attr title "packets dropped (wrong port), count"
vector 41 Net1Test.U6.udp droppedPkBadChecksum:vector(count) ETV
attr interpolationmode none
attr recordingmode vector(count)
attr source packetDropReasonIsIncorrectlyReceived(packetDropped)
attr title "packets dropped (checksum error), count"
vector 42 Net1Test.U7.wlan[0].mac.dcf frameSequenceActive:vector ETV
attr autoWarmupFilter false
attr interpolationmode sample-hold
attr recordingmode vector
attr source warmup(count(frameSequenceStarted)-count(frameSequenceFinished))
attr title "frame sequence active"
vector 43 Net1Test.U7.wlan[0].mac.dcf.channelAccess.inProgressFrames queueLength:vector ETV
attr autoWarmupFilter false
attr interpolationmode sample-hold
attr recordingmode vector
attr source "warmup(count(packetEnqueued) - count(packetDequeued))"
attr title "queue length"
vector 44 Net1Test.U7.wlan[0].mac.dcf.channelAccess.contention backoffActive:vector ETV
attr autoWarmupFilter false
attr interpolationmode sample-hold
attr recordingmode vector
attr source warmup(count(backoffStarted)-count(backoffStopped))
attr title "backoff active"
vector 45 Net1Test.U7.udp passedUpPk:vector(count) ETV
attr interpolationmode none
attr recordingmode vector(count)
attr source packetSentToUpper
attr title "packets passed up, count"
vector 46 Net1Test.U7.udp droppedPkWrongPort:vector(count) ETV
attr interpolationmode none
attr recordingmode vector(count)
attr source packetDropReasonIsNoPortFound(packetDropped)
attr title "packets dropped (wrong port), count"
vector 47 Net1Test.U7.udp droppedPkBadChecksum:vector(count) ETV
attr interpolationmode none
attr recordingmode vector(count)
attr source packetDropReasonIsIncorrectlyReceived(packetDropped)
attr title "packets dropped (checksum error), count"
vector 48 Net1Test.U8.wlan[0].mac.dcf frameSequenceActive:vector ETV
attr autoWarmupFilter false
attr interpolationmode sample-hold
attr recordingmode vector
attr source warmup(count(frameSequenceStarted)-count(frameSequenceFinished))
attr title "frame sequence active"
vector 49 Net1Test.U8.wlan[0].mac.dcf.channelAccess.inProgressFrames queueLength:vector ETV
attr autoWarmupFilter false
attr interpolationmode sample-hold
attr recordingmode vector
attr source "warmup(count(packetEnqueued) - count(packetDequeued))"
attr title "queue length"
vector 50 Net1Test.U8.wlan[0].mac.dcf.channelAccess.contention backoffActive:vector ETV
attr autoWarmupFilter false
attr interpolationmode sample-hold
attr recordingmode vector
attr source warmup(count(backoffStarted)-count(backoffStopped))
attr title "backoff active"
vector 51 Net1Test.U8.udp passedUpPk:vector(count) ETV
attr interpolationmode none
attr recordingmode vector(count)
attr source packetSentToUpper
attr title "packets passed up, count"
vector 52 Net1Test.U8.udp droppedPkWrongPort:vector(count) ETV
attr interpolationmode none
attr recordingmode vector(count)
attr source packetDropReasonIsNoPortFound(packetDropped)
attr title "packets dropped (wrong port), count"
vector 53 Net1Test.U8.udp droppedPkBadChecksum:vector(count) ETV
attr interpolationmode none
attr recordingmode vector(count)
attr source packetDropReasonIsIncorrectlyReceived(packetDropped)
attr title "packets dropped (checksum error), count"
vector 54 Net1Test.U9.wlan[0].mac.dcf frameSequenceActive:vector ETV
attr autoWarmupFilter false
attr interpolationmode sample-hold
attr recordingmode vector
attr source warmup(count(frameSequenceStarted)-count(frameSequenceFinished))
attr title "frame sequence active"
vector 55 Net1Test.U9.wlan[0].mac.dcf.channelAccess.inProgressFrames queueLength:vector ETV
attr autoWarmupFilter false
attr interpolationmode sample-hold
attr recordingmode vector
attr source "warmup(count(packetEnqueued) - count(packetDequeued))"
attr title "queue length"
vector 56 Net1Test.U9.wlan[0].mac.dcf.channelAccess.contention backoffActive:vector ETV
attr autoWarmupFilter false
attr interpolationmode sample-hold
attr recordingmode vector
attr source warmup(count(backoffStarted)-count(backoffStopped))
attr title "backoff active"
vector 57 Net1Test.U9.udp passedUpPk:vector(count) ETV
attr interpolationmode none
attr recordingmode vector(count)
attr source packetSentToUpper
attr title "packets passed up, count"
vector 58 Net1Test.U9.udp droppedPkWrongPort:vector(count) ETV
attr interpolationmode none
attr recordingmode vector(count)
attr source packetDropReasonIsNoPortFound(packetDropped)
attr title "packets dropped (wrong port), count"
vector 59 Net1Test.U9.udp droppedPkBadChecksum:vector(count) ETV
attr interpolationmode none
attr recordingmode vector(count)
attr source packetDropReasonIsIncorrectlyReceived(packetDropped)
attr title "packets dropped (checksum error), count"
vector 60 Net1Test.U10.wlan[0].mac.dcf frameSequenceActive:vector ETV
attr autoWarmupFilter false
attr interpolationmode sample-hold
attr recordingmode vector
attr source warmup(count(frameSequenceStarted)-count(frameSequenceFinished))
attr title "frame sequence active"
vector 61 Net1Test.U10.wlan[0].mac.dcf.channelAccess.inProgressFrames queueLength:vector ETV
attr autoWarmupFilter false
attr interpolationmode sample-hold
attr recordingmode vector
attr source "warmup(count(packetEnqueued) - count(packetDequeued))"
attr title "queue length"
vector 62 Net1Test.U10.wlan[0].mac.dcf.channelAccess.contention backoffActive:vector ETV
attr autoWarmupFilter false
attr interpolationmode sample-hold
attr recordingmode vector
attr source warmup(count(backoffStarted)-count(backoffStopped))
attr title "backoff active"
vector 63 Net1Test.U10.udp passedUpPk:vector(count) ETV
attr interpolationmode none
attr recordingmode vector(count)
attr source packetSentToUpper
attr title "packets passed up, count"
vector 64 Net1Test.U10.udp droppedPkWrongPort:vector(count) ETV
attr interpolationmode none
attr recordingmode vector(count)
attr source packetDropReasonIsNoPortFound(packetDropped)
attr title "packets dropped (wrong port), count"
vector 65 Net1Test.U10.udp droppedPkBadChecksum:vector(count) ETV
attr interpolationmode none
attr recordingmode vector(count)
attr source packetDropReasonIsIncorrectlyReceived(packetDropped)
attr title "packets dropped (checksum error), count"
vector 66 Net1Test.U11.wlan[0].mac.dcf frameSequenceActive:vector ETV
attr autoWarmupFilter false
attr interpolationmode sample-hold
attr recordingmode vector
attr source warmup(count(frameSequenceStarted)-count(frameSequenceFinished))
attr title "frame sequence active"
vector 67 Net1Test.U11.wlan[0].mac.dcf.channelAccess.inProgressFrames queueLength:vector ETV
attr autoWarmupFilter false
attr interpolationmode sample-hold
attr recordingmode vector
attr source "warmup(count(packetEnqueued) - count(packetDequeued))"
attr title "queue length"
vector 68 Net1Test.U11.wlan[0].mac.dcf.channelAccess.contention backoffActive:vector ETV
attr autoWarmupFilter false
attr interpolationmode sample-hold
attr recordingmode vector
attr source warmup(count(backoffStarted)-count(backoffStopped))
attr title "backoff active"
vector 69 Net1Test.U11.udp passedUpPk:vector(count) ETV
attr interpolationmode none
attr recordingmode vector(count)
attr source packetSentToUpper
attr title "packets passed up, count"
vector 70 Net1Test.U11.udp droppedPkWrongPort:vector(count) ETV
attr interpolationmode none
attr recordingmode vector(count)
attr source packetDropReasonIsNoPortFound(packetDropped)
attr title "packets dropped (wrong port), count"
vector 71 Net1Test.U11.udp droppedPkBadChecksum:vector(count) ETV
attr interpolationmode none
attr recordingmode vector(count)
attr source packetDropReasonIsIncorrectlyReceived(packetDropped)
attr title "packets dropped (checksum error), count"
vector 72 Net1Test.U12.wlan[0].mac.dcf frameSequenceActive:vector ETV
attr autoWarmupFilter false
attr interpolationmode sample-hold
attr recordingmode vector
attr source warmup(count(frameSequenceStarted)-count(frameSequenceFinished))
attr title "frame sequence active"
vector 73 Net1Test.U12.wlan[0].mac.dcf.channelAccess.inProgressFrames queueLength:vector ETV
attr autoWarmupFilter false
attr interpolationmode sample-hold
attr recordingmode vector
attr source "warmup(count(packetEnqueued) - count(packetDequeued))"
attr title "queue length"
vector 74 Net1Test.U12.wlan[0].mac.dcf.channelAccess.contention backoffActive:vector ETV
attr autoWarmupFilter false
attr interpolationmode sample-hold
attr recordingmode vector
attr source warmup(count(backoffStarted)-count(backoffStopped))
attr title "backoff active"
vector 75 Net1Test.U12.udp passedUpPk:vector(count) ETV
attr interpolationmode none
attr recordingmode vector(count)
attr source packetSentToUpper
attr title "packets passed up, count"
vector 76 Net1Test.U12.udp droppedPkWrongPort:vector(count) ETV
attr interpolationmode none
attr recordingmode vector(count)
attr source packetDropReasonIsNoPortFound(packetDropped)
attr title "packets dropped (wrong port), count"
vector 77 Net1Test.U12.udp droppedPkBadChecksum:vector(count) ETV
attr interpolationmode none
attr recordingmode vector(count)
attr source packetDropReasonIsIncorrectlyReceived(packetDropped)
attr title "packets dropped (checksum error), count"
vector 78 Net1Test.U13.wlan[0].mac.dcf frameSequenceActive:vector ETV
attr autoWarmupFilter false
attr interpolationmode sample-hold
attr recordingmode vector
attr source warmup(count(frameSequenceStarted)-count(frameSequenceFinished))
attr title "frame sequence active"
vector 79 Net1Test.U13.wlan[0].mac.dcf.channelAccess.inProgressFrames queueLength:vector ETV
attr autoWarmupFilter false
attr interpolationmode sample-hold
attr recordingmode vector
attr source "warmup(count(packetEnqueued) - count(packetDequeued))"
attr title "queue length"
vector 80 Net1Test.U13.wlan[0].mac.dcf.channelAccess.contention backoffActive:vector ETV
attr autoWarmupFilter false
attr interpolationmode sample-hold
attr recordingmode vector
attr source warmup(count(backoffStarted)-count(backoffStopped))
attr title "backoff active"
vector 81 Net1Test.U13.udp passedUpPk:vector(count) ETV
attr interpolationmode none
attr recordingmode vector(count)
attr source packetSentToUpper
attr title "packets passed up, count"
vector 82 Net1Test.U13.udp droppedPkWrongPort:vector(count) ETV
attr interpolationmode none
attr recordingmode vector(count)
attr source packetDropReasonIsNoPortFound(packetDropped)
attr title "packets dropped (wrong port), count"
vector 83 Net1Test.U13.udp droppedPkBadChecksum:vector(count) ETV
attr interpolationmode none
attr recordingmode vector(count)
attr source packetDropReasonIsIncorrectlyReceived(packetDropped)
attr title "packets dropped (checksum error), count"
vector 84 Net1Test.U14.wlan[0].mac.dcf frameSequenceActive:vector ETV
attr autoWarmupFilter false
attr interpolationmode sample-hold
attr recordingmode vector
attr source warmup(count(frameSequenceStarted)-count(frameSequenceFinished))
attr title "frame sequence active"
vector 85 Net1Test.U14.wlan[0].mac.dcf.channelAccess.inProgressFrames queueLength:vector ETV
attr autoWarmupFilter false
attr interpolationmode sample-hold
attr recordingmode vector
attr source "warmup(count(packetEnqueued) - count(packetDequeued))"
attr title "queue length"
vector 86 Net1Test.U14.wlan[0].mac.dcf.channelAccess.contention backoffActive:vector ETV
attr autoWarmupFilter false
attr interpolationmode sample-hold
attr recordingmode vector
attr source warmup(count(backoffStarted)-count(backoffStopped))
attr title "backoff active"
vector 87 Net1Test.U14.udp passedUpPk:vector(count) ETV
attr interpolationmode none
attr recordingmode vector(count)
attr source packetSentToUpper
attr title "packets passed up, count"
vector 88 Net1Test.U14.udp droppedPkWrongPort:vector(count) ETV
attr interpolationmode none
attr recordingmode vector(count)
attr source packetDropReasonIsNoPortFound(packetDropped)
attr title "packets dropped (wrong port), count"
vector 89 Net1Test.U14.udp droppedPkBadChecksum:vector(count) ETV
attr interpolationmode none
attr recordingmode vector(count)
attr source packetDropReasonIsIncorrectlyReceived(packetDropped)
attr title "packets dropped (checksum error), count"
vector 90 Net1Test.U15.wlan[0].mac.dcf frameSequenceActive:vector ETV
attr autoWarmupFilter false
attr interpolationmode sample-hold
attr recordingmode vector
attr source warmup(count(frameSequenceStarted)-count(frameSequenceFinished))
attr title "frame sequence active"
vector 91 Net1Test.U15.wlan[0].mac.dcf.channelAccess.inProgressFrames queueLength:vector ETV
attr autoWarmupFilter false
attr interpolationmode sample-hold
attr recordingmode vector
attr source "warmup(count(packetEnqueued) - count(packetDequeued))"
attr title "queue length"
vector 92 Net1Test.U15.wlan[0].mac.dcf.channelAccess.contention backoffActive:vector ETV
attr autoWarmupFilter false
attr interpolationmode sample-hold
attr recordingmode vector
attr source warmup(count(backoffStarted)-count(backoffStopped))
attr title "backoff active"
vector 93 Net1Test.U15.udp passedUpPk:vector(count) ETV
attr interpolationmode none
attr recordingmode vector(count)
attr source packetSentToUpper
attr title "packets passed up, count"
vector 94 Net1Test.U15.udp droppedPkWrongPort:vector(count) ETV
attr interpolationmode none
attr recordingmode vector(count)
attr source packetDropReasonIsNoPortFound(packetDropped)
attr title "packets dropped (wrong port), count"
vector 95 Net1Test.U15.udp droppedPkBadChecksum:vector(count) ETV
attr interpolationmode none
attr recordingmode vector(count)
attr source packetDropReasonIsIncorrectlyReceived(packetDropped)
attr title "packets dropped (checksum error), count"
vector 96 Net1Test.U16.wlan[0].mac.dcf frameSequenceActive:vector ETV
attr autoWarmupFilter false
attr interpolationmode sample-hold
attr recordingmode vector
attr source warmup(count(frameSequenceStarted)-count(frameSequenceFinished))
attr title "frame sequence active"
vector 97 Net1Test.U16.wlan[0].mac.dcf.channelAccess.inProgressFrames queueLength:vector ETV
attr autoWarmupFilter false
attr interpolationmode sample-hold
attr recordingmode vector
attr source "warmup(count(packetEnqueued) - count(packetDequeued))"
attr title "queue length"
vector 98 Net1Test.U16.wlan[0].mac.dcf.channelAccess.contention backoffActive:vector ETV
attr autoWarmupFilter false
attr interpolationmode sample-hold
attr recordingmode vector
attr source warmup(count(backoffStarted)-count(backoffStopped))
attr title "backoff active"
vector 99 Net1Test.U16.udp passedUpPk:vector(count) ETV
attr interpolationmode none
attr recordingmode vector(count)
attr source packetSentToUpper
attr title "packets passed up, count"
vector 100 Net1Test.U16.udp droppedPkWrongPort:vector(count) ETV
attr interpolationmode none
attr recordingmode vector(count)
attr source packetDropReasonIsNoPortFound(packetDropped)
attr title "packets dropped (wrong port), count"
vector 101 Net1Test.U16.udp droppedPkBadChecksum:vector(count) ETV
attr interpolationmode none
attr recordingmode vector(count)
attr source packetDropReasonIsIncorrectlyReceived(packetDropped)
attr title "packets dropped (checksum error), count"
vector 102 Net1Test.U17.wlan[0].mac.dcf frameSequenceActive:vector ETV
attr autoWarmupFilter false
attr interpolationmode sample-hold
attr recordingmode vector
attr source warmup(count(frameSequenceStarted)-count(frameSequenceFinished))
attr title "frame sequence active"
vector 103 Net1Test.U17.wlan[0].mac.dcf.channelAccess.inProgressFrames queueLength:vector ETV
attr autoWarmupFilter false
attr interpolationmode sample-hold
attr recordingmode vector
attr source "warmup(count(packetEnqueued) - count(packetDequeued))"
attr title "queue length"
vector 104 Net1Test.U17.wlan[0].mac.dcf.channelAccess.contention backoffActive:vector ETV
attr autoWarmupFilter false
attr interpolationmode sample-hold
attr recordingmode vector
attr source warmup(count(backoffStarted)-count(backoffStopped))
attr title "backoff active"
vector 105 Net1Test.U17.udp passedUpPk:vector(count) ETV
attr interpolationmode none
attr recordingmode vector(count)
attr source packetSentToUpper
attr title "packets passed up, count"
vector 106 Net1Test.U17.udp droppedPkWrongPort:vector(count) ETV
attr interpolationmode none
attr recordingmode vector(count)
attr source packetDropReasonIsNoPortFound(packetDropped)
attr title "packets dropped (wrong port), count"
vector 107 Net1Test.U17.udp droppedPkBadChecksum:vector(count) ETV
attr interpolationmode none
attr recordingmode vector(count)
attr source packetDropReasonIsIncorrectlyReceived(packetDropped)
attr title "packets dropped (checksum error), count"
vector 108 Net1Test.U18.wlan[0].mac.dcf frameSequenceActive:vector ETV
attr autoWarmupFilter false
attr interpolationmode sample-hold
attr recordingmode vector
attr source warmup(count(frameSequenceStarted)-count(frameSequenceFinished))
attr title "frame sequence active"
vector 109 Net1Test.U18.wlan[0].mac.dcf.channelAccess.inProgressFrames queueLength:vector ETV
attr autoWarmupFilter false
attr interpolationmode sample-hold
attr recordingmode vector
attr source "warmup(count(packetEnqueued) - count(packetDequeued))"
attr title "queue length"
vector 110 Net1Test.U18.wlan[0].mac.dcf.channelAccess.contention backoffActive:vector ETV
attr autoWarmupFilter false
attr interpolationmode sample-hold
attr recordingmode vector
attr source warmup(count(backoffStarted)-count(backoffStopped))
attr title "backoff active"
vector 111 Net1Test.U18.udp passedUpPk:vector(count) ETV
attr interpolationmode none
attr recordingmode vector(count)
attr source packetSentToUpper
attr title "packets passed up, count"
vector 112 Net1Test.U18.udp droppedPkWrongPort:vector(count) ETV
attr interpolationmode none
attr recordingmode vector(count)
attr source packetDropReasonIsNoPortFound(packetDropped)
attr title "packets dropped (wrong port), count"
vector 113 Net1Test.U18.udp droppedPkBadChecksum:vector(count) ETV
attr interpolationmode none
attr recordingmode vector(count)
attr source packetDropReasonIsIncorrectlyReceived(packetDropped)
attr title "packets dropped (checksum error), count"
vector 114 Net1Test.U19.wlan[0].mac.dcf frameSequenceActive:vector ETV
attr autoWarmupFilter false
attr interpolationmode sample-hold
attr recordingmode vector
attr source warmup(count(frameSequenceStarted)-count(frameSequenceFinished))
attr title "frame sequence active"
vector 115 Net1Test.U19.wlan[0].mac.dcf.channelAccess.inProgressFrames queueLength:vector ETV
attr autoWarmupFilter false
attr interpolationmode sample-hold
attr recordingmode vector
attr source "warmup(count(packetEnqueued) - count(packetDequeued))"
attr title "queue length"
vector 116 Net1Test.U19.wlan[0].mac.dcf.channelAccess.contention backoffActive:vector ETV
attr autoWarmupFilter false
attr interpolationmode sample-hold
attr recordingmode vector
attr source warmup(count(backoffStarted)-count(backoffStopped))
attr title "backoff active"
vector 117 Net1Test.U19.udp passedUpPk:vector(count) ETV
attr interpolationmode none
attr recordingmode vector(count)
attr source packetSentToUpper
attr title "packets passed up, count"
vector 118 Net1Test.U19.udp droppedPkWrongPort:vector(count) ETV
attr interpolationmode none
attr recordingmode vector(count)
attr source packetDropReasonIsNoPortFound(packetDropped)
attr title "packets dropped (wrong port), count"
vector 119 Net1Test.U19.udp droppedPkBadChecksum:vector(count) ETV
attr interpolationmode none
attr recordingmode vector(count)
attr source packetDropReasonIsIncorrectlyReceived(packetDropped)
attr title "packets dropped (checksum error), count"
vector 120 Net1Test.U20.wlan[0].mac.dcf frameSequenceActive:vector ETV
attr autoWarmupFilter false
attr interpolationmode sample-hold
attr recordingmode vector
attr source warmup(count(frameSequenceStarted)-count(frameSequenceFinished))
attr title "frame sequence active"
vector 121 Net1Test.U20.wlan[0].mac.dcf.channelAccess.inProgressFrames queueLength:vector ETV
attr autoWarmupFilter false
attr interpolationmode sample-hold
attr recordingmode vector
attr source "warmup(count(packetEnqueued) - count(packetDequeued))"
attr title "queue length"
vector 122 Net1Test.U20.wlan[0].mac.dcf.channelAccess.contention backoffActive:vector ETV
attr autoWarmupFilter false
attr interpolationmode sample-hold
attr recordingmode vector
attr source warmup(count(backoffStarted)-count(backoffStopped))
attr title "backoff active"
vector 123 Net1Test.U20.udp passedUpPk:vector(count) ETV
attr interpolationmode none
attr recordingmode vector(count)
attr source packetSentToUpper
attr title "packets passed up, count"
vector 124 Net1Test.U20.udp droppedPkWrongPort:vector(count) ETV
attr interpolationmode none
attr recordingmode vector(count)
attr source packetDropReasonIsNoPortFound(packetDropped)
attr title "packets dropped (wrong port), count"
vector 125 Net1Test.U20.udp droppedPkBadChecksum:vector(count) ETV
attr interpolationmode none
attr recordingmode vector(count)
attr source packetDropReasonIsIncorrectlyReceived(packetDropped)
attr title "packets dropped (checksum error), count"
vector 126 Net1Test.U21.wlan[0].mac.dcf frameSequenceActive:vector ETV
attr autoWarmupFilter false
attr interpolationmode sample-hold
attr recordingmode vector
attr source warmup(count(frameSequenceStarted)-count(frameSequenceFinished))
attr title "frame sequence active"
vector 127 Net1Test.U21.wlan[0].mac.dcf.channelAccess.inProgressFrames queueLength:vector ETV
attr autoWarmupFilter false
attr interpolationmode sample-hold
attr recordingmode vector
attr source "warmup(count(packetEnqueued) - count(packetDequeued))"
attr title "queue length"
vector 128 Net1Test.U21.wlan[0].mac.dcf.channelAccess.contention backoffActive:vector ETV
attr autoWarmupFilter false
attr interpolationmode sample-hold
attr recordingmode vector
attr source warmup(count(backoffStarted)-count(backoffStopped))
attr title "backoff active"
vector 129 Net1Test.U21.udp passedUpPk:vector(count) ETV
attr interpolationmode none
attr recordingmode vector(count)
attr source packetSentToUpper
attr title "packets passed up, count"
vector 130 Net1Test.U21.udp droppedPkWrongPort:vector(count) ETV
attr interpolationmode none
attr recordingmode vector(count)
attr source packetDropReasonIsNoPortFound(packetDropped)
attr title "packets dropped (wrong port), count"
vector 131 Net1Test.U21.udp droppedPkBadChecksum:vector(count) ETV
attr interpolationmode none
attr recordingmode vector(count)
attr source packetDropReasonIsIncorrectlyReceived(packetDropped)
attr title "packets dropped (checksum error), count"
vector 132 Net1Test.U22.wlan[0].mac.dcf frameSequenceActive:vector ETV
attr autoWarmupFilter false
attr interpolationmode sample-hold
attr recordingmode vector
attr source warmup(count(frameSequenceStarted)-count(frameSequenceFinished))
attr title "frame sequence active"
vector 133 Net1Test.U22.wlan[0].mac.dcf.channelAccess.inProgressFrames queueLength:vector ETV
attr autoWarmupFilter false
attr interpolationmode sample-hold
attr recordingmode vector
attr source "warmup(count(packetEnqueued) - count(packetDequeued))"
attr title "queue length"
vector 134 Net1Test.U22.wlan[0].mac.dcf.channelAccess.contention backoffActive:vector ETV
attr autoWarmupFilter false
attr interpolationmode sample-hold
attr recordingmode vector
attr source warmup(count(backoffStarted)-count(backoffStopped))
attr title "backoff active"
vector 135 Net1Test.U22.udp passedUpPk:vector(count) ETV
attr interpolationmode none
attr recordingmode vector(count)
attr source packetSentToUpper
attr title "packets passed up, count"
vector 136 Net1Test.U22.udp droppedPkWrongPort:vector(count) ETV
attr interpolationmode none
attr recordingmode vector(count)
attr source packetDropReasonIsNoPortFound(packetDropped)
attr title "packets dropped (wrong port), count"
vector 137 Net1Test.U22.udp droppedPkBadChecksum:vector(count) ETV
attr interpolationmode none
attr recordingmode vector(count)
attr source packetDropReasonIsIncorrectlyReceived(packetDropped)
attr title "packets dropped (checksum error), count"
vector 138 Net1Test.U23.wlan[0].mac.dcf frameSequenceActive:vector ETV
attr autoWarmupFilter false
attr interpolationmode sample-hold
attr recordingmode vector
attr source warmup(count(frameSequenceStarted)-count(frameSequenceFinished))
attr title "frame sequence active"
vector 139 Net1Test.U23.wlan[0].mac.dcf.channelAccess.inProgressFrames queueLength:vector ETV
attr autoWarmupFilter false
attr interpolationmode sample-hold
attr recordingmode vector
attr source "warmup(count(packetEnqueued) - count(packetDequeued))"
attr title "queue length"
vector 140 Net1Test.U23.wlan[0].mac.dcf.channelAccess.contention backoffActive:vector ETV
attr autoWarmupFilter false
attr interpolationmode sample-hold
attr recordingmode vector
attr source warmup(count(backoffStarted)-count(backoffStopped))
attr title "backoff active"
vector 141 Net1Test.U23.udp passedUpPk:vector(count) ETV
attr interpolationmode none
attr recordingmode vector(count)
attr source packetSentToUpper
attr title "packets passed up, count"
vector 142 Net1Test.U23.udp droppedPkWrongPort:vector(count) ETV
attr interpolationmode none
attr recordingmode vector(count)
attr source packetDropReasonIsNoPortFound(packetDropped)
attr title "packets dropped (wrong port), count"
vector 143 Net1Test.U23.udp droppedPkBadChecksum:vector(count) ETV
attr interpolationmode none
attr recordingmode vector(count)
attr source packetDropReasonIsIncorrectlyReceived(packetDropped)
attr title "packets dropped (checksum error), count"
vector 144 Net1Test.U24.wlan[0].mac.dcf frameSequenceActive:vector ETV
attr autoWarmupFilter false
attr interpolationmode sample-hold
attr recordingmode vector
attr source warmup(count(frameSequenceStarted)-count(frameSequenceFinished))
attr title "frame sequence active"
vector 145 Net1Test.U24.wlan[0].mac.dcf.channelAccess.inProgressFrames queueLength:vector ETV
attr autoWarmupFilter false
attr interpolationmode sample-hold
attr recordingmode vector
attr source "warmup(count(packetEnqueued) - count(packetDequeued))"
attr title "queue length"
vector 146 Net1Test.U24.wlan[0].mac.dcf.channelAccess.contention backoffActive:vector ETV
attr autoWarmupFilter false
attr interpolationmode sample-hold
attr recordingmode vector
attr source warmup(count(backoffStarted)-count(backoffStopped))
attr title "backoff active"
vector 147 Net1Test.U24.udp passedUpPk:vector(count) ETV
attr interpolationmode none
attr recordingmode vector(count)
attr source packetSentToUpper
attr title "packets passed up, count"
vector 148 Net1Test.U24.udp droppedPkWrongPort:vector(count) ETV
attr interpolationmode none
attr recordingmode vector(count)
attr source packetDropReasonIsNoPortFound(packetDropped)
attr title "packets dropped (wrong port), count"
vector 149 Net1Test.U24.udp droppedPkBadChecksum:vector(count) ETV
attr interpolationmode none
attr recordingmode vector(count)
attr source packetDropReasonIsIncorrectlyReceived(packetDropped)
attr title "packets dropped (checksum error), count"
vector 150 Net1Test.U25.wlan[0].mac.dcf frameSequenceActive:vector ETV
attr autoWarmupFilter false
attr interpolationmode sample-hold
attr recordingmode vector
attr source warmup(count(frameSequenceStarted)-count(frameSequenceFinished))
attr title "frame sequence active"
vector 151 Net1Test.U25.wlan[0].mac.dcf.channelAccess.inProgressFrames queueLength:vector ETV
attr autoWarmupFilter false
attr interpolationmode sample-hold
attr recordingmode vector
attr source "warmup(count(packetEnqueued) - count(packetDequeued))"
attr title "queue length"
vector 152 Net1Test.U25.wlan[0].mac.dcf.channelAccess.contention backoffActive:vector ETV
attr autoWarmupFilter false
attr interpolationmode sample-hold
attr recordingmode vector
attr source warmup(count(backoffStarted)-count(backoffStopped))
attr title "backoff active"
vector 153 Net1Test.U25.udp passedUpPk:vector(count) ETV
attr interpolationmode none
attr recordingmode vector(count)
attr source packetSentToUpper
attr title "packets passed up, count"
vector 154 Net1Test.U25.udp droppedPkWrongPort:vector(count) ETV
attr interpolationmode none
attr recordingmode vector(count)
attr source packetDropReasonIsNoPortFound(packetDropped)
attr title "packets dropped (wrong port), count"
vector 155 Net1Test.U25.udp droppedPkBadChecksum:vector(count) ETV
attr interpolationmode none
attr recordingmode vector(count)
attr source packetDropReasonIsIncorrectlyReceived(packetDropped)
attr title "packets dropped (checksum error), count"
vector 156 Net1Test.Source.wlan[0].radio radioMode:vector ETV
attr interpolationmode sample-hold
attr recordingmode vector
attr source radioModeChanged
attr title "Radio mode"
vector 157 Net1Test.Source.wlan[0].radio radioChannel:vector ETV
attr interpolationmode sample-hold
attr recordingmode vector
attr source radioChannelChanged
attr title "Radio channel"
vector 158 Net1Test.Destination.wlan[0].radio radioMode:vector ETV
attr interpolationmode sample-hold
attr recordingmode vector
attr source radioModeChanged
attr title "Radio mode"
vector 159 Net1Test.Destination.wlan[0].radio radioChannel:vector ETV
attr interpolationmode sample-hold
attr recordingmode vector
attr source radioChannelChanged
attr title "Radio channel"
vector 160 Net1Test.U2.wlan[0].radio radioMode:vector ETV
attr interpolationmode sample-hold
attr recordingmode vector
attr source radioModeChanged
attr title "Radio mode"
vector 161 Net1Test.U2.wlan[0].radio radioChannel:vector ETV
attr interpolationmode sample-hold
attr recordingmode vector
attr source radioChannelChanged
attr title "Radio channel"
vector 162 Net1Test.U3.wlan[0].radio radioMode:vector ETV
attr interpolationmode sample-hold
attr recordingmode vector
attr source radioModeChanged
attr title "Radio mode"
vector 163 Net1Test.U3.wlan[0].radio radioChannel:vector ETV
attr interpolationmode sample-hold
attr recordingmode vector
attr source radioChannelChanged
attr title "Radio channel"
vector 164 Net1Test.U4.wlan[0].radio radioMode:vector ETV
attr interpolationmode sample-hold
attr recordingmode vector
attr source radioModeChanged
attr title "Radio mode"
vector 165 Net1Test.U4.wlan[0].radio radioChannel:vector ETV
attr interpolationmode sample-hold
attr recordingmode vector
attr source radioChannelChanged
attr title "Radio channel"
vector 166 Net1Test.U5.wlan[0].radio radioMode:vector ETV
attr interpolationmode sample-hold
attr recordingmode vector
attr source radioModeChanged
attr title "Radio mode"
vector 167 Net1Test.U5.wlan[0].radio radioChannel:vector ETV
attr interpolationmode sample-hold
attr recordingmode vector
attr source radioChannelChanged
attr title "Radio channel"
vector 168 Net1Test.U6.wlan[0].radio radioMode:vector ETV
attr interpolationmode sample-hold
attr recordingmode vector
attr source radioModeChanged
attr title "Radio mode"
vector 169 Net1Test.U6.wlan[0].radio radioChannel:vector ETV
attr interpolationmode sample-hold
attr recordingmode vector
attr source radioChannelChanged
attr title "Radio channel"
vector 170 Net1Test.U7.wlan[0].radio radioMode:vector ETV
attr interpolationmode sample-hold
attr recordingmode vector
attr source radioModeChanged
attr title "Radio mode"
vector 171 Net1Test.U7.wlan[0].radio radioChannel:vector ETV
attr interpolationmode sample-hold
attr recordingmode vector
attr source radioChannelChanged
attr title "Radio channel"
vector 172 Net1Test.U8.wlan[0].radio radioMode:vector ETV
attr interpolationmode sample-hold
attr recordingmode vector
attr source radioModeChanged
attr title "Radio mode"
vector 173 Net1Test.U8.wlan[0].radio radioChannel:vector ETV
attr interpolationmode sample-hold
attr recordingmode vector
attr source radioChannelChanged
attr title "Radio channel"
vector 174 Net1Test.U9.wlan[0].radio radioMode:vector ETV
attr interpolationmode sample-hold
attr recordingmode vector
attr source radioModeChanged
attr title "Radio mode"
vector 175 Net1Test.U9.wlan[0].radio radioChannel:vector ETV
attr interpolationmode sample-hold
attr recordingmode vector
attr source radioChannelChanged
attr title "Radio channel"
vector 176 Net1Test.U10.wlan[0].radio radioMode:vector ETV
attr interpolationmode sample-hold
attr recordingmode vector
attr source radioModeChanged
attr title "Radio mode"
vector 177 Net1Test.U10.wlan[0].radio radioChannel:vector ETV
attr interpolationmode sample-hold
attr recordingmode vector
attr source radioChannelChanged
attr title "Radio channel"
vector 178 Net1Test.U11.wlan[0].radio radioMode:vector ETV
attr interpolationmode sample-hold
attr recordingmode vector
attr source radioModeChanged
attr title "Radio mode"
vector 179 Net1Test.U11.wlan[0].radio radioChannel:vector ETV
attr interpolationmode sample-hold
attr recordingmode vector
attr source radioChannelChanged
attr title "Radio channel"
vector 180 Net1Test.U12.wlan[0].radio radioMode:vector ETV
attr interpolationmode sample-hold
attr recordingmode vector
attr source radioModeChanged
attr title "Radio mode"
vector 181 Net1Test.U12.wlan[0].radio radioChannel:vector ETV
attr interpolationmode sample-hold
attr recordingmode vector
attr source radioChannelChanged
attr title "Radio channel"
vector 182 Net1Test.U13.wlan[0].radio radioMode:vector ETV
attr interpolationmode sample-hold
attr recordingmode vector
attr source radioModeChanged
attr title "Radio mode"
vector 183 Net1Test.U13.wlan[0].radio radioChannel:vector ETV
attr interpolationmode sample-hold
attr recordingmode vector
attr source radioChannelChanged
attr title "Radio channel"
vector 184 Net1Test.U14.wlan[0].radio radioMode:vector ETV
attr interpolationmode sample-hold
attr recordingmode vector
attr source radioModeChanged
attr title "Radio mode"
vector 185 Net1Test.U14.wlan[0].radio radioChannel:vector ETV
attr interpolationmode sample-hold
attr recordingmode vector
attr source radioChannelChanged
attr title "Radio channel"
vector 186 Net1Test.U15.wlan[0].radio radioMode:vector ETV
attr interpolationmode sample-hold
attr recordingmode vector
attr source radioModeChanged
attr title "Radio mode"
vector 187 Net1Test.U15.wlan[0].radio radioChannel:vector ETV
attr interpolationmode sample-hold
attr recordingmode vector
attr source radioChannelChanged
attr title "Radio channel"
vector 188 Net1Test.U16.wlan[0].radio radioMode:vector ETV
attr interpolationmode sample-hold
attr recordingmode vector
attr source radioModeChanged
attr title "Radio mode"
vector 189 Net1Test.U16.wlan[0].radio radioChannel:vector ETV
attr interpolationmode sample-hold
attr recordingmode vector
attr source radioChannelChanged
attr title "Radio channel"
vector 190 Net1Test.U17.wlan[0].radio radioMode:vector ETV
attr interpolationmode sample-hold
attr recordingmode vector
attr source radioModeChanged
attr title "Radio mode"
vector 191 Net1Test.U17.wlan[0].radio radioChannel:vector ETV
attr interpolationmode sample-hold
attr recordingmode vector
attr source radioChannelChanged
attr title "Radio channel"
vector 192 Net1Test.U18.wlan[0].radio radioMode:vector ETV
attr interpolationmode sample-hold
attr recordingmode vector
attr source radioModeChanged
attr title "Radio mode"
vector 193 Net1Test.U18.wlan[0].radio radioChannel:vector ETV
attr interpolationmode sample-hold
attr recordingmode vector
attr source radioChannelChanged
attr title "Radio channel"
vector 194 Net1Test.U19.wlan[0].radio radioMode:vector ETV
attr interpolationmode sample-hold
attr recordingmode vector
attr source radioModeChanged
attr title "Radio mode"
vector 195 Net1Test.U19.wlan[0].radio radioChannel:vector ETV
attr interpolationmode sample-hold
attr recordingmode vector
attr source radioChannelChanged
attr title "Radio channel"
vector 196 Net1Test.U20.wlan[0].radio radioMode:vector ETV
attr interpolationmode sample-hold
attr recordingmode vector
attr source radioModeChanged
attr title "Radio mode"
vector 197 Net1Test.U20.wlan[0].radio radioChannel:vector ETV
attr interpolationmode sample-hold
attr recordingmode vector
attr source radioChannelChanged
attr title "Radio channel"
vector 198 Net1Test.U21.wlan[0].radio radioMode:vector ETV
attr interpolationmode sample-hold
attr recordingmode vector
attr source radioModeChanged
attr title "Radio mode"
vector 199 Net1Test.U21.wlan[0].radio radioChannel:vector ETV
attr interpolationmode sample-hold
attr recordingmode vector
attr source radioChannelChanged
attr title "Radio channel"
vector 200 Net1Test.U22.wlan[0].radio radioMode:vector ETV
attr interpolationmode sample-hold
attr recordingmode vector
attr source radioModeChanged
attr title "Radio mode"
vector 201 Net1Test.U22.wlan[0].radio radioChannel:vector ETV
attr interpolationmode sample-hold
attr recordingmode vector
attr source radioChannelChanged
attr title "Radio channel"
vector 202 Net1Test.U23.wlan[0].radio radioMode:vector ETV
attr interpolationmode sample-hold
attr recordingmode vector
attr source radioModeChanged
attr title "Radio mode"
vector 203 Net1Test.U23.wlan[0].radio radioChannel:vector ETV
attr interpolationmode sample-hold
attr recordingmode vector
attr source radioChannelChanged
attr title "Radio channel"
vector 204 Net1Test.U24.wlan[0].radio radioMode:vector ETV
attr interpolationmode sample-hold
attr recordingmode vector
attr source radioModeChanged
attr title "Radio mode"
vector 205 Net1Test.U24.wlan[0].radio radioChannel:vector ETV
attr interpolationmode sample-hold
attr recordingmode vector
attr source radioChannelChanged
attr title "Radio channel"
vector 206 Net1Test.U25.wlan[0].radio radioMode:vector ETV
attr interpolationmode sample-hold
attr recordingmode vector
attr source radioModeChanged
attr title "Radio mode"
vector 207 Net1Test.U25.wlan[0].radio radioChannel:vector ETV
attr interpolationmode sample-hold
attr recordingmode vector
attr source radioChannelChanged
attr title "Radio channel"
vector 208 Net1Test.Source.wlan[0].radio receptionState:vector ETV
attr interpolationmode sample-hold
attr recordingmode vector
attr source receptionStateChanged
attr title "Radio reception state"
vector 209 Net1Test.Source.wlan[0].mac.dcf.channelAccess.contention stateChanged:vector ETV
attr enum IDLE,DEFER,IFS_AND_BACKOFF
attr interpolationmode none
attr recordingmode vector
attr title "contention state changed"
attr type enum
vector 210 Net1Test.Destination.wlan[0].radio receptionState:vector ETV
attr interpolationmode sample-hold
attr recordingmode vector
attr source receptionStateChanged
attr title "Radio reception state"
vector 211 Net1Test.Destination.wlan[0].mac.dcf.channelAccess.contention stateChanged:vector ETV
attr enum IDLE,DEFER,IFS_AND_BACKOFF
attr interpolationmode none
attr recordingmode vector
attr title "contention state changed"
attr type enum
vector 212 Net1Test.U2.wlan[0].radio receptionState:vector ETV
attr interpolationmode sample-hold
attr recordingmode vector
attr source receptionStateChanged
attr title "Radio reception state"
vector 213 Net1Test.U2.wlan[0].mac.dcf.channelAccess.contention stateChanged:vector ETV
attr enum IDLE,DEFER,IFS_AND_BACKOFF
attr interpolationmode none
attr recordingmode vector
attr title "contention state changed"
attr type enum
vector 214 Net1Test.U3.wlan[0].radio receptionState:vector ETV
attr interpolationmode sample-hold
attr recordingmode vector
attr source receptionStateChanged
attr title "Radio reception state"
vector 215 Net1Test.U3.wlan[0].mac.dcf.channelAccess.contention stateChanged:vector ETV
attr enum IDLE,DEFER,IFS_AND_BACKOFF
attr interpolationmode none
attr recordingmode vector
attr title "contention state changed"
attr type enum
vector 216 Net1Test.U4.wlan[0].radio receptionState:vector ETV
attr interpolationmode sample-hold
attr recordingmode vector
attr source receptionStateChanged
attr title "Radio reception state"
vector 217 Net1Test.U4.wlan[0].mac.dcf.channelAccess.contention stateChanged:vector ETV
attr enum IDLE,DEFER,IFS_AND_BACKOFF
attr interpolationmode none
attr recordingmode vector
attr title "contention state changed"
attr type enum
vector 218 Net1Test.U5.wlan[0].radio receptionState:vector ETV
attr interpolationmode sample-hold
attr recordingmode vector
attr source receptionStateChanged
attr title "Radio reception state"
vector 219 Net1Test.U5.wlan[0].mac.dcf.channelAccess.contention stateChanged:vector ETV
attr enum IDLE,DEFER,IFS_AND_BACKOFF
attr interpolationmode none
attr recordingmode vector
attr title "contention state changed"
attr type enum
vector 220 Net1Test.U6.wlan[0].radio receptionState:vector ETV
attr interpolationmode sample-hold
attr recordingmode vector
attr source receptionStateChanged
attr title "Radio reception state"
vector 221 Net1Test.U6.wlan[0].mac.dcf.channelAccess.contention stateChanged:vector ETV
attr enum IDLE,DEFER,IFS_AND_BACKOFF
attr interpolationmode none
attr recordingmode vector
attr title "contention state changed"
attr type enum
vector 222 Net1Test.U7.wlan[0].radio receptionState:vector ETV
attr interpolationmode sample-hold
attr recordingmode vector
attr source receptionStateChanged
attr title "Radio reception state"
vector 223 Net1Test.U7.wlan[0].mac.dcf.channelAccess.contention stateChanged:vector ETV
attr enum IDLE,DEFER,IFS_AND_BACKOFF
attr interpolationmode none
attr recordingmode vector
attr title "contention state changed"
attr type enum
vector 224 Net1Test.U8.wlan[0].radio receptionState:vector ETV
attr interpolationmode sample-hold
attr recordingmode vector
attr source receptionStateChanged
attr title "Radio reception state"
vector 225 Net1Test.U8.wlan[0].mac.dcf.channelAccess.contention stateChanged:vector ETV
attr enum IDLE,DEFER,IFS_AND_BACKOFF
attr interpolationmode none
attr recordingmode vector
attr title "contention state changed"
attr type enum
vector 226 Net1Test.U9.wlan[0].radio receptionState:vector ETV
attr interpolationmode sample-hold
attr recordingmode vector
attr source receptionStateChanged
attr title "Radio reception state"
vector 227 Net1Test.U9.wlan[0].mac.dcf.channelAccess.contention stateChanged:vector ETV
attr enum IDLE,DEFER,IFS_AND_BACKOFF
attr interpolationmode none
attr recordingmode vector
attr title "contention state changed"
attr type enum
vector 228 Net1Test.U10.wlan[0].radio receptionState:vector ETV
attr interpolationmode sample-hold
attr recordingmode vector
attr source receptionStateChanged
attr title "Radio reception state"
vector 229 Net1Test.U10.wlan[0].mac.dcf.channelAccess.contention stateChanged:vector ETV
attr enum IDLE,DEFER,IFS_AND_BACKOFF
attr interpolationmode none
attr recordingmode vector
attr title "contention state changed"
attr type enum
vector 230 Net1Test.U11.wlan[0].radio receptionState:vector ETV
attr interpolationmode sample-hold
attr recordingmode vector
attr source receptionStateChanged
attr title "Radio reception state"
vector 231 Net1Test.U11.wlan[0].mac.dcf.channelAccess.contention stateChanged:vector ETV
attr enum IDLE,DEFER,IFS_AND_BACKOFF
attr interpolationmode none
attr recordingmode vector
attr title "contention state changed"
attr type enum
vector 232 Net1Test.U12.wlan[0].radio receptionState:vector ETV
attr interpolationmode sample-hold
attr recordingmode vector
attr source receptionStateChanged
attr title "Radio reception state"
vector 233 Net1Test.U12.wlan[0].mac.dcf.channelAccess.contention stateChanged:vector ETV
attr enum IDLE,DEFER,IFS_AND_BACKOFF
attr interpolationmode none
attr recordingmode vector
attr title "contention state changed"
attr type enum
vector 234 Net1Test.U13.wlan[0].radio receptionState:vector ETV
attr interpolationmode sample-hold
attr recordingmode vector
attr source receptionStateChanged
attr title "Radio reception state"
vector 235 Net1Test.U13.wlan[0].mac.dcf.channelAccess.contention stateChanged:vector ETV
attr enum IDLE,DEFER,IFS_AND_BACKOFF
attr interpolationmode none
attr recordingmode vector
attr title "contention state changed"
attr type enum
vector 236 Net1Test.U14.wlan[0].radio receptionState:vector ETV
attr interpolationmode sample-hold
attr recordingmode vector
attr source receptionStateChanged
attr title "Radio reception state"
vector 237 Net1Test.U14.wlan[0].mac.dcf.channelAccess.contention stateChanged:vector ETV
attr enum IDLE,DEFER,IFS_AND_BACKOFF
attr interpolationmode none
attr recordingmode vector
attr title "contention state changed"
attr type enum
vector 238 Net1Test.U15.wlan[0].radio receptionState:vector ETV
attr interpolationmode sample-hold
attr recordingmode vector
attr source receptionStateChanged
attr title "Radio reception state"
vector 239 Net1Test.U15.wlan[0].mac.dcf.channelAccess.contention stateChanged:vector ETV
attr enum IDLE,DEFER,IFS_AND_BACKOFF
attr interpolationmode none
attr recordingmode vector
attr title "contention state changed"
attr type enum
vector 240 Net1Test.U16.wlan[0].radio receptionState:vector ETV
attr interpolationmode sample-hold
attr recordingmode vector
attr source receptionStateChanged
attr title "Radio reception state"
vector 241 Net1Test.U16.wlan[0].mac.dcf.channelAccess.contention stateChanged:vector ETV
attr enum IDLE,DEFER,IFS_AND_BACKOFF
attr interpolationmode none
attr recordingmode vector
attr title "contention state changed"
attr type enum
vector 242 Net1Test.U17.wlan[0].radio receptionState:vector ETV
attr interpolationmode sample-hold
attr recordingmode vector
attr source receptionStateChanged
attr title "Radio reception state"
vector 243 Net1Test.U17.wlan[0].mac.dcf.channelAccess.contention stateChanged:vector ETV
attr enum IDLE,DEFER,IFS_AND_BACKOFF
attr interpolationmode none
attr recordingmode vector
attr title "contention state changed"
attr type enum
vector 244 Net1Test.U18.wlan[0].radio receptionState:vector ETV
attr interpolationmode sample-hold
attr recordingmode vector
attr source receptionStateChanged
attr title "Radio reception state"
vector 245 Net1Test.U18.wlan[0].mac.dcf.channelAccess.contention stateChanged:vector ETV
attr enum IDLE,DEFER,IFS_AND_BACKOFF
attr interpolationmode none
attr recordingmode vector
attr title "contention state changed"
attr type enum
vector 246 Net1Test.U19.wlan[0].radio receptionState:vector ETV
attr interpolationmode sample-hold
attr recordingmode vector
attr source receptionStateChanged
attr title "Radio reception state"
vector 247 Net1Test.U19.wlan[0].mac.dcf.channelAccess.contention stateChanged:vector ETV
attr enum IDLE,DEFER,IFS_AND_BACKOFF
attr interpolationmode none
attr recordingmode vector
attr title "contention state changed"
attr type enum
vector 248 Net1Test.U20.wlan[0].radio receptionState:vector ETV
attr interpolationmode sample-hold
attr recordingmode vector
attr source receptionStateChanged
attr title "Radio reception state"
vector 249 Net1Test.U20.wlan[0].mac.dcf.channelAccess.contention stateChanged:vector ETV
attr enum IDLE,DEFER,IFS_AND_BACKOFF
attr interpolationmode none
attr recordingmode vector
attr title "contention state changed"
attr type enum
vector 250 Net1Test.U21.wlan[0].radio receptionState:vector ETV
attr interpolationmode sample-hold
attr recordingmode vector
attr source receptionStateChanged
attr title "Radio reception state"
vector 251 Net1Test.U21.wlan[0].mac.dcf.channelAccess.contention stateChanged:vector ETV
attr enum IDLE,DEFER,IFS_AND_BACKOFF
attr interpolationmode none
attr recordingmode vector
attr title "contention state changed"
attr type enum
vector 252 Net1Test.U22.wlan[0].radio receptionState:vector ETV
attr interpolationmode sample-hold
attr recordingmode vector
attr source receptionStateChanged
attr title "Radio reception state"
vector 253 Net1Test.U22.wlan[0].mac.dcf.channelAccess.contention stateChanged:vector ETV
attr enum IDLE,DEFER,IFS_AND_BACKOFF
attr interpolationmode none
attr recordingmode vector
attr title "contention state changed"
attr type enum
vector 254 Net1Test.U23.wlan[0].radio receptionState:vector ETV
attr interpolationmode sample-hold
attr recordingmode vector
attr source receptionStateChanged
attr title "Radio reception state"
vector 255 Net1Test.U23.wlan[0].mac.dcf.channelAccess.contention stateChanged:vector ETV
attr enum IDLE,DEFER,IFS_AND_BACKOFF
attr interpolationmode none
attr recordingmode vector
attr title "contention state changed"
attr type enum
vector 256 Net1Test.U24.wlan[0].radio receptionState:vector ETV
attr interpolationmode sample-hold
attr recordingmode vector
attr source receptionStateChanged
attr title "Radio reception state"
vector 257 Net1Test.U24.wlan[0].mac.dcf.channelAccess.contention stateChanged:vector ETV
attr enum IDLE,DEFER,IFS_AND_BACKOFF
attr interpolationmode none
attr recordingmode vector
attr title "contention state changed"
attr type enum
vector 258 Net1Test.U25.wlan[0].radio receptionState:vector ETV
attr interpolationmode sample-hold
attr recordingmode vector
attr source receptionStateChanged
attr title "Radio reception state"
vector 259 Net1Test.U25.wlan[0].mac.dcf.channelAccess.contention stateChanged:vector ETV
attr enum IDLE,DEFER,IFS_AND_BACKOFF
attr interpolationmode none
attr recordingmode vector
attr title "contention state changed"
attr type enum
vector 260 Net1Test.Source.wlan[0].mac.dcf.recoveryProcedure contentionWindowChanged:vector ETV
attr interpolationmode sample-hold
attr recordingmode vector
attr title "contention window"
vector 261 Net1Test.Destination.wlan[0].mac.dcf.recoveryProcedure contentionWindowChanged:vector ETV
attr interpolationmode sample-hold
attr recordingmode vector
attr title "contention window"
vector 262 Net1Test.U2.wlan[0].mac.dcf.recoveryProcedure contentionWindowChanged:vector ETV
attr interpolationmode sample-hold
attr recordingmode vector
attr title "contention window"
vector 263 Net1Test.U3.wlan[0].mac.dcf.recoveryProcedure contentionWindowChanged:vector ETV
attr interpolationmode sample-hold
attr recordingmode vector
attr title "contention window"
vector 264 Net1Test.U4.wlan[0].mac.dcf.recoveryProcedure contentionWindowChanged:vector ETV
attr interpolationmode sample-hold
attr recordingmode vector
attr title "contention window"
vector 265 Net1Test.U5.wlan[0].mac.dcf.recoveryProcedure contentionWindowChanged:vector ETV
attr interpolationmode sample-hold
attr recordingmode vector
attr title "contention window"
vector 266 Net1Test.U6.wlan[0].mac.dcf.recoveryProcedure contentionWindowChanged:vector ETV
attr interpolationmode sample-hold
attr recordingmode vector
attr title "contention window"
vector 267 Net1Test.U7.wlan[0].mac.dcf.recoveryProcedure contentionWindowChanged:vector ETV
attr interpolationmode sample-hold
attr recordingmode vector
attr title "contention window"
vector 268 Net1Test.U8.wlan[0].mac.dcf.recoveryProcedure contentionWindowChanged:vector ETV
attr interpolationmode sample-hold
attr recordingmode vector
attr title "contention window"
vector 269 Net1Test.U9.wlan[0].mac.dcf.recoveryProcedure contentionWindowChanged:vector ETV
attr interpolationmode sample-hold
attr recordingmode vector
attr title "contention window"
vector 270 Net1Test.U10.wlan[0].mac.dcf.recoveryProcedure contentionWindowChanged:vector ETV
attr interpolationmode sample-hold
attr recordingmode vector
attr title "contention window"
vector 271 Net1Test.U11.wlan[0].mac.dcf.recoveryProcedure contentionWindowChanged:vector ETV
attr interpolationmode sample-hold
attr recordingmode vector
attr title "contention window"
vector 272 Net1Test.U12.wlan[0].mac.dcf.recoveryProcedure contentionWindowChanged:vector ETV
attr interpolationmode sample-hold
attr recordingmode vector
attr title "contention window"
vector 273 Net1Test.U13.wlan[0].mac.dcf.recoveryProcedure contentionWindowChanged:vector ETV
attr interpolationmode sample-hold
attr recordingmode vector
attr title "contention window"
vector 274 Net1Test.U14.wlan[0].mac.dcf.recoveryProcedure contentionWindowChanged:vector ETV
attr interpolationmode sample-hold
attr recordingmode vector
attr title "contention window"
vector 275 Net1Test.U15.wlan[0].mac.dcf.recoveryProcedure contentionWindowChanged:vector ETV
attr interpolationmode sample-hold
attr recordingmode vector
attr title "contention window"
vector 276 Net1Test.U16.wlan[0].mac.dcf.recoveryProcedure contentionWindowChanged:vector ETV
attr interpolationmode sample-hold
attr recordingmode vector
attr title "contention window"
vector 277 Net1Test.U17.wlan[0].mac.dcf.recoveryProcedure contentionWindowChanged:vector ETV
attr interpolationmode sample-hold
attr recordingmode vector
attr title "contention window"
vector 278 Net1Test.U18.wlan[0].mac.dcf.recoveryProcedure contentionWindowChanged:vector ETV
attr interpolationmode sample-hold
attr recordingmode vector
attr title "contention window"
vector 279 Net1Test.U19.wlan[0].mac.dcf.recoveryProcedure contentionWindowChanged:vector ETV
attr interpolationmode sample-hold
attr recordingmode vector
attr title "contention window"
vector 280 Net1Test.U20.wlan[0].mac.dcf.recoveryProcedure contentionWindowChanged:vector ETV
attr interpolationmode sample-hold
attr recordingmode vector
attr title "contention window"
vector 281 Net1Test.U21.wlan[0].mac.dcf.recoveryProcedure contentionWindowChanged:vector ETV
attr interpolationmode sample-hold
attr recordingmode vector
attr title "contention window"
vector 282 Net1Test.U22.wlan[0].mac.dcf.recoveryProcedure contentionWindowChanged:vector ETV
attr interpolationmode sample-hold
attr recordingmode vector
attr title "contention window"
vector 283 Net1Test.U23.wlan[0].mac.dcf.recoveryProcedure contentionWindowChanged:vector ETV
attr interpolationmode sample-hold
attr recordingmode vector
attr title "contention window"
vector 284 Net1Test.U24.wlan[0].mac.dcf.recoveryProcedure contentionWindowChanged:vector ETV
attr interpolationmode sample-hold
attr recordingmode vector
attr title "contention window"
vector 285 Net1Test.U25.wlan[0].mac.dcf.recoveryProcedure contentionWindowChanged:vector ETV
attr interpolationmode sample-hold
attr recordingmode vector
attr title "contention window"
vector 286 Net1Test.U22.wlan[0].mac packetReceivedFromUpper:vector(packetBytes) ETV
attr interpolationmode none
attr recordingmode vector(packetBytes)
attr title "packets received from upper layer, packetBytes"
vector 287 Net1Test.U22.wlan[0].mac.dcf.channelAccess.pendingQueue incomingPacketLengths:vector ETV
attr interpolationmode none
attr recordingmode vector
attr source packetLength(packetPushStarted)
attr title "incoming packet lengths"
attr unit b
vector 288 Net1Test.U22.wlan[0].mac.dcf.channelAccess.pendingQueue queueLength:vector ETV
attr autoWarmupFilter false
attr interpolationmode sample-hold
attr recordingmode vector
attr source "warmup(atomic(constant0(packetPushEnded) + count(packetPushStarted) - count(packetPulled) - count(packetRemoved) - count(packetDropped)))"
attr title "queue length"
attr unit pk
vector 289 Net1Test.U22.wlan[0].mac.dcf.channelAccess.pendingQueue queueBitLength:vector ETV
attr autoWarmupFilter false
attr interpolationmode sample-hold
attr recordingmode vector
attr source "warmup(atomic(constant0(packetPushEnded) + sum(packetLength(packetPushStarted)) - sum(packetLength(packetPulled)) - sum(packetLength(packetRemoved)) - sum(packetLength(packetDropped))))"
attr title "queue bit length"
attr unit b
vector 290 Net1Test.U22.wlan[0].mac.dcf.channelAccess.contention backoffPeriodGenerated:vector ETV
attr interpolationmode none
attr recordingmode vector
attr title "backoff periods"
vector 291 Net1Test.U22.wlan[0].mac.dcf.channelAccess.pendingQueue queueingTime:vector ETV
attr interpolationmode none
attr recordingmode vector
attr source queueingTime(packetPulled)
attr title "queueing times"
attr unit s
vector 292 Net1Test.U22.wlan[0].mac.dcf.channelAccess.pendingQueue outgoingPacketLengths:vector ETV
attr interpolationmode none
attr recordingmode vector
attr source packetLength(packetPulled)
attr title "outgoing packet lengths"
attr unit b
vector 293 Net1Test.U22.wlan[0].mac.dcf datarateSelected:vector ETV
attr interpolationmode none
attr recordingmode vector
attr title "datarates selected"
vector 294 Net1Test.U22.wlan[0].mac packetSentToLower:vector(packetBytes) ETV
attr interpolationmode none
attr recordingmode vector(packetBytes)
attr title "packets sent to lower layer, packetBytes"
vector 295 Net1Test.U22.wlan[0].radio transmissionState:vector ETV
attr interpolationmode sample-hold
attr recordingmode vector
attr source transmissionStateChanged
attr title "Radio transmission state"
vector 296 Net1Test.U22.wlan[0].mac.dcf packetSentToPeer:vector(packetBytes) ETV
attr interpolationmode none
attr recordingmode vector(packetBytes)
attr title "packets sent, packetBytes"
vector 297 Net1Test.U22.wlan[0].mac.dcf packetSentToPeerMulticast:vector(packetBytes) ETV
attr interpolationmode none
attr recordingmode vector(packetBytes)
attr source ieee80211Multicast(packetSentToPeer)
attr title "packets sent: multicast, packetBytes"
vector 298 Net1Test.U22.wlan[0].mac.dcf packetSentToPeerWithoutRetry:vector(packetBytes) ETV
attr interpolationmode none
attr recordingmode vector(packetBytes)
attr source ieee80211NotRetry(packetSentToPeer)
attr title "packets sent: without retry, packetBytes"
vector 299 Net1Test.U22.wlan[0].mac.dcf.channelAccess.inProgressFrames queueingTime:vector ETV
attr interpolationmode none
attr recordingmode vector
attr source queueingTime(packetDequeued)
attr title "queueing times"
vector 300 Net1Test.U11.wlan[0].mac packetReceivedFromLower:vector(packetBytes) ETV
attr interpolationmode none
attr recordingmode vector(packetBytes)
attr title "packets received from lower layer, packetBytes"
vector 301 Net1Test.U11.wlan[0].mac.dcf packetReceivedFromPeer:vector(packetBytes) ETV
attr interpolationmode none
attr recordingmode vector(packetBytes)
attr title "packets received, packetBytes"
vector 302 Net1Test.U11.wlan[0].mac.dcf packetReceivedFromPeerMulticast:vector(packetBytes) ETV
attr interpolationmode none
attr recordingmode vector(packetBytes)
attr source ieee80211Multicast(packetReceivedFromPeer)
attr title "packets received: multicast, packetBytes"
vector 303 Net1Test.U11.wlan[0].mac.dcf packetReceivedFromPeerWithoutRetry:vector(packetBytes) ETV
attr interpolationmode none
attr recordingmode vector(packetBytes)
attr source ieee80211NotRetry(packetReceivedFromPeer)
attr title "packets received: without retry, packetBytes"
vector 304 Net1Test.U11.wlan[0].mac packetSentToUpper:vector(packetBytes) ETV
attr interpolationmode none
attr recordingmode vector(packetBytes)
attr title "packets sent to upper layer, packetBytes"
vector 305 Net1Test.U8.wlan[0].mac packetReceivedFromLower:vector(packetBytes) ETV
attr interpolationmode none
attr recordingmode vector(packetBytes)
attr title "packets received from lower layer, packetBytes"
vector 306 Net1Test.U8.wlan[0].mac.dcf packetReceivedFromPeer:vector(packetBytes) ETV
attr interpolationmode none
attr recordingmode vector(packetBytes)
attr title "packets received, packetBytes"
vector 307 Net1Test.U8.wlan[0].mac.dcf packetReceivedFromPeerMulticast:vector(packetBytes) ETV
attr interpolationmode none
attr recordingmode vector(packetBytes)
attr source ieee80211Multicast(packetReceivedFromPeer)
attr title "packets received: multicast, packetBytes"
vector 308 Net1Test.U8.wlan[0].mac.dcf packetReceivedFromPeerWithoutRetry:vector(packetBytes) ETV
attr interpolationmode none
attr recordingmode vector(packetBytes)
attr source ieee80211NotRetry(packetReceivedFromPeer)
attr title "packets received: without retry, packetBytes"
vector 309 Net1Test.U8.wlan[0].mac packetSentToUpper:vector(packetBytes) ETV
attr interpolationmode none
attr recordingmode vector(packetBytes)
attr title "packets sent to upper layer, packetBytes"
vector 310 Net1Test.U6.wlan[0].mac packetReceivedFromLower:vector(packetBytes) ETV
attr interpolationmode none
attr recordingmode vector(packetBytes)
attr title "packets received from lower layer, packetBytes"
vector 311 Net1Test.U6.wlan[0].mac.dcf packetReceivedFromPeer:vector(packetBytes) ETV
attr interpolationmode none
attr recordingmode vector(packetBytes)
attr title "packets received, packetBytes"
vector 312 Net1Test.U6.wlan[0].mac.dcf packetReceivedFromPeerMulticast:vector(packetBytes) ETV
attr interpolationmode none
attr recordingmode vector(packetBytes)
attr source ieee80211Multicast(packetReceivedFromPeer)
attr title "packets received: multicast, packetBytes"
vector 313 Net1Test.U6.wlan[0].mac.dcf packetReceivedFromPeerWithoutRetry:vector(packetBytes) ETV
attr interpolationmode none
attr recordingmode vector(packetBytes)
attr source ieee80211NotRetry(packetReceivedFromPeer)
attr title "packets received: without retry, packetBytes"
vector 314 Net1Test.U6.wlan[0].mac packetSentToUpper:vector(packetBytes) ETV
attr interpolationmode none
attr recordingmode vector(packetBytes)
attr title "packets sent to upper layer, packetBytes"
vector 315 Net1Test.U24.wlan[0].mac packetReceivedFromLower:vector(packetBytes) ETV
attr interpolationmode none
attr recordingmode vector(packetBytes)
attr title "packets received from lower layer, packetBytes"
vector 316 Net1Test.U24.wlan[0].mac.dcf packetReceivedFromPeer:vector(packetBytes) ETV
attr interpolationmode none
attr recordingmode vector(packetBytes)
attr title "packets received, packetBytes"
vector 317 Net1Test.U24.wlan[0].mac.dcf packetReceivedFromPeerMulticast:vector(packetBytes) ETV
attr interpolationmode none
attr recordingmode vector(packetBytes)
attr source ieee80211Multicast(packetReceivedFromPeer)
attr title "packets received: multicast, packetBytes"
vector 318 Net1Test.U24.wlan[0].mac.dcf packetReceivedFromPeerWithoutRetry:vector(packetBytes) ETV
attr interpolationmode none
attr recordingmode vector(packetBytes)
attr source ieee80211NotRetry(packetReceivedFromPeer)
attr title "packets received: without retry, packetBytes"
vector 319 Net1Test.U24.wlan[0].mac packetSentToUpper:vector(packetBytes) ETV
attr interpolationmode none
attr recordingmode vector(packetBytes)
attr title "packets sent to upper layer, packetBytes"
vector 320 Net1Test.U7.wlan[0].mac packetReceivedFromLower:vector(packetBytes) ETV
attr interpolationmode none
attr recordingmode vector(packetBytes)
attr title "packets received from lower layer, packetBytes"
vector 321 Net1Test.U7.wlan[0].mac.dcf packetReceivedFromPeer:vector(packetBytes) ETV
attr interpolationmode none
attr recordingmode vector(packetBytes)
attr title "packets received, packetBytes"
vector 322 Net1Test.U7.wlan[0].mac.dcf packetReceivedFromPeerMulticast:vector(packetBytes) ETV
attr interpolationmode none
attr recordingmode vector(packetBytes)
attr source ieee80211Multicast(packetReceivedFromPeer)
attr title "packets received: multicast, packetBytes"
vector 323 Net1Test.U7.wlan[0].mac.dcf packetReceivedFromPeerWithoutRetry:vector(packetBytes) ETV
attr interpolationmode none
attr recordingmode vector(packetBytes)
attr source ieee80211NotRetry(packetReceivedFromPeer)
attr title "packets received: without retry, packetBytes"
vector 324 Net1Test.U7.wlan[0].mac packetSentToUpper:vector(packetBytes) ETV
attr interpolationmode none
attr recordingmode vector(packetBytes)
attr title "packets sent to upper layer, packetBytes"
vector 325 Net1Test.U11.wlan[0].mac packetReceivedFromUpper:vector(packetBytes) ETV
attr interpolationmode none
attr recordingmode vector(packetBytes)
attr title "packets received from upper layer, packetBytes"
vector 326 Net1Test.U11.wlan[0].mac.dcf.channelAccess.pendingQueue incomingPacketLengths:vector ETV
attr interpolationmode none
attr recordingmode vector
attr source packetLength(packetPushStarted)
attr title "incoming packet lengths"
attr unit b
vector 327 Net1Test.U11.wlan[0].mac.dcf.channelAccess.pendingQueue queueLength:vector ETV
attr autoWarmupFilter false
attr interpolationmode sample-hold
attr recordingmode vector
attr source "warmup(atomic(constant0(packetPushEnded) + count(packetPushStarted) - count(packetPulled) - count(packetRemoved) - count(packetDropped)))"
attr title "queue length"
attr unit pk
vector 328 Net1Test.U11.wlan[0].mac.dcf.channelAccess.pendingQueue queueBitLength:vector ETV
attr autoWarmupFilter false
attr interpolationmode sample-hold
attr recordingmode vector
attr source "warmup(atomic(constant0(packetPushEnded) + sum(packetLength(packetPushStarted)) - sum(packetLength(packetPulled)) - sum(packetLength(packetRemoved)) - sum(packetLength(packetDropped))))"
attr title "queue bit length"
attr unit b
vector 329 Net1Test.U11.wlan[0].mac.dcf.channelAccess.contention backoffPeriodGenerated:vector ETV
attr interpolationmode none
attr recordingmode vector
attr title "backoff periods"
vector 330 Net1Test.U11.wlan[0].mac.dcf.channelAccess.pendingQueue queueingTime:vector ETV
attr interpolationmode none
attr recordingmode vector
attr source queueingTime(packetPulled)
attr title "queueing times"
attr unit s
vector 331 Net1Test.U11.wlan[0].mac.dcf.channelAccess.pendingQueue outgoingPacketLengths:vector ETV
attr interpolationmode none
attr recordingmode vector
attr source packetLength(packetPulled)
attr title "outgoing packet lengths"
attr unit b
vector 332 Net1Test.U11.wlan[0].mac.dcf datarateSelected:vector ETV
attr interpolationmode none
attr recordingmode vector
attr title "datarates selected"
vector 333 Net1Test.U11.wlan[0].mac packetSentToLower:vector(packetBytes) ETV
attr interpolationmode none
attr recordingmode vector(packetBytes)
attr title "packets sent to lower layer, packetBytes"
vector 334 Net1Test.U11.wlan[0].radio transmissionState:vector ETV
attr interpolationmode sample-hold
attr recordingmode vector
attr source transmissionStateChanged
attr title "Radio transmission state"
vector 335 Net1Test.U11.wlan[0].mac.dcf packetSentToPeer:vector(packetBytes) ETV
attr interpolationmode none
attr recordingmode vector(packetBytes)
attr title "packets sent, packetBytes"
vector 336 Net1Test.U11.wlan[0].mac.dcf packetSentToPeerMulticast:vector(packetBytes) ETV
attr interpolationmode none
attr recordingmode vector(packetBytes)
attr source ieee80211Multicast(packetSentToPeer)
attr title "packets sent: multicast, packetBytes"
vector 337 Net1Test.U11.wlan[0].mac.dcf packetSentToPeerWithoutRetry:vector(packetBytes) ETV
attr interpolationmode none
attr recordingmode vector(packetBytes)
attr source ieee80211NotRetry(packetSentToPeer)
attr title "packets sent: without retry, packetBytes"
vector 338 Net1Test.U11.wlan[0].mac.dcf.channelAccess.inProgressFrames queueingTime:vector ETV
attr interpolationmode none
attr recordingmode vector
attr source queueingTime(packetDequeued)
attr title "queueing times"
vector 339 Net1Test.U22.wlan[0].mac packetReceivedFromLower:vector(packetBytes) ETV
attr interpolationmode none
attr recordingmode vector(packetBytes)
attr title "packets received from lower layer, packetBytes"
vector 340 Net1Test.U22.wlan[0].mac.dcf packetReceivedFromPeer:vector(packetBytes) ETV
attr interpolationmode none
attr recordingmode vector(packetBytes)
attr title "packets received, packetBytes"
vector 341 Net1Test.U22.wlan[0].mac.dcf packetReceivedFromPeerMulticast:vector(packetBytes) ETV
attr interpolationmode none
attr recordingmode vector(packetBytes)
attr source ieee80211Multicast(packetReceivedFromPeer)
attr title "packets received: multicast, packetBytes"
vector 342 Net1Test.U22.wlan[0].mac.dcf packetReceivedFromPeerWithoutRetry:vector(packetBytes) ETV
attr interpolationmode none
attr recordingmode vector(packetBytes)
[...]
734	20458189 7946 341932 462917 89.501541837654 120.752687318507 252 14 1104 140868 153595512
735	20466135 7977 341932 462917 89.501541837654 120.752687318507 253 14 1104 140944 153601288
736	20474112 7946 341932 462917 89.501541837654 120.752687318507 252 14 1104 140868 153595512
737	20482058 23856 342135 463241 89.502702826655 120.754496670909 756 0 4.4e-05 0.011088 4.87872e-07
738	20505914 19759 342069 463247 89.502074826655 120.754497238551 630 14 1104 283500 307215720
739	20525673 19759 342069 463247 89.502074826655 120.754497238551 630 14 1104 283500 307215720
740	20545432 19791 342069 463247 89.502074826655 120.754497238551 631 14 1104 284604 308434536
741	20565223 19759 342069 463247 89.502074826655 120.754497238551 630 14 1104 283500 307215720
742	20584982 11925 342252 463237 89.50321461651 120.754496097363 378 0 4.4e-05 0.005544 2.43936e-07
743	20596907 3849 342067 462988 89.50207461651 120.752732097363 126 14 14 1764 24696
744	20600756 3849 342067 462988 89.50207461651 120.752732097363 126 14 14 1764 24696
745	20604605 3880 342067 462988 89.50207461651 120.752732097363 127 14 1104 2868 1243512
746	20608485 3849 342067 462988 89.50207461651 120.752732097363 126 14 14 1764 24696
747	20612334 11931 341998 462978 89.502029893999 120.752731374852 378 0 4.4e-05 0.005544 2.43936e-07
748	20624265 7954 341934 462919 89.501541893999 120.752687374852 252 14 1104 140868 153595512
749	20632219 7954 341934 462919 89.501541893999 120.752687374852 252 14 1104 140868 153595512
750	20640173 7985 341934 462919 89.501541893999 120.752687374852 253 14 1104 140944 153601288
751	20648158 7954 341934 462919 89.501541893999 120.752687374852 252 14 1104 140868 153595512
752	20656112 23931 342123 463238 89.502702459367 120.754496547675 759 0 4.4e-05 0.011132 4.89808e-07
753	20680043 15924 342061 463176 89.502074459367 120.754452547675 505 14 1104 282840 308409840
754	20695967 15924 342061 463176 89.502074459367 120.754452547675 505 14 1104 282840 308409840
755	20711891 15924 342061 463176 89.502074459367 120.754452547675 505 14 1104 282840 308409840
756	20727815 15924 342061 463176 89.502074459367 120.754452547675 505 14 1104 282840 308409840
758	20743739 4101 341994 462915 89.502029758621 120.752687239474 126 1104 1104 139104 153570816
759	20747840 4101 341994 462915 89.502029758621 120.752687239474 126 1104 1104 139104 153570816
760	20751941 4131 341994 462915 89.502029758621 120.752687239474 127 76 1104 139180 153576592
761	20756072 4101 341994 462915 89.502029758621 120.752687239474 126 1104 1104 139104 153570816
770	20760173 7950 342189 463173 89.50274661651 120.754452097363 252 14 1104 140868 153595512
772	20768123 3855 342196 463117 89.502747073688 120.753624554541 126 14 14 1764 24696
773	20771978 3855 342196 463117 89.502747073688 120.753624554541 126 14 14 1764 24696
774	20775833 3855 342196 463117 89.502747073688 120.753624554541 126 14 14 1764 24696
775	20779688 3855 342196 463117 89.502747073688 120.753624554541 126 14 14 1764 24696
776	20783543 7947 342129 463245 89.50270261651 120.754497011719 252 14 1104 140868 153595512
785	20791490 458 345178 460361 90.461394528861 120.018338750584 15 48 48 720 34560
786	20791948 473 345178 460361 90.461394528861 120.018338750584 15 608 608 9120 5544960
787	20792421 886 345178 460363 90.461394528861 120.018338750584 30 0 1 15 15
788	20793307 916 345178 460363 90.461394528861 120.018338750584 30 0 608 9120 5544960
789	20794223 448 345178 460361 90.461394528861 120.018338750584 15 0 31 161 3287
790	20794671 443 345180 460363 90.461394528861 120.018338750584 15 0 0 0 0
791	20795114 473 345180 460363 90.461394528861 120.018338750584 15 608 608 9120 5544960
792	20795587 548 345180 460363 90.461394528861 120.018338750584 15 24000000 24000000 360000000 8.64e+15
793	20796135 458 345180 460363 90.461394528861 120.018338750584 15 76 76 1140 86640
794	20796593 1772 345181 460392 90.461394528861 120.018392750584 60 0 2 60 90
795	20798365 458 345208 460391 90.461448528861 120.018392750584 15 76 76 1140 86640
796	20798823 458 345208 460391 90.461448528861 120.018392750584 15 76 76 1140 86640
797	20799281 458 345208 460391 90.461448528861 120.018392750584 15 76 76 1140 86640
798	20799739 533 345208 460391 90.461448528861 120.018392750584 15 5.4e-05 5.4e-05 0.00081 4.374e-08
799	20800272 489 345352 458420 90.483708417508 119.600420147647 16 48 48 768 36864
800	20800761 505 345352 458420 90.483708417508 119.600420147647 16 608 608 9728 5914624
801	20801266 946 345352 458422 90.483708417508 119.600420147647 32 0 1 16 16
802	20802212 978 345352 458422 90.483708417508 119.600420147647 32 0 608 9728 5914624
803	20803190 483 345352 458420 90.483708417508 119.600420147647 16 0 29 224 4606
804	20803673 473 345354 458422 90.483708417508 119.600420147647 16 0 0 0 0
805	20804146 505 345354 458422 90.483708417508 119.600420147647 16 608 608 9728 5914624
806	20804651 5196 342257 463178 89.503215073688 120.754452554541 142 24000000 24000000 3408000000 8.1792e+16
807	20809847 4344 342288 463209 89.503225073688 120.754462554541 142 14 76 2980 117112
808	20814191 16808 342289 463240 89.503225073688 120.754496554541 568 0 2 568 852
809	20830999 4344 342318 463239 89.503259073688 120.754496554541 142 14 76 2980 117112
810	20835343 489 345382 458450 90.483762417508 119.600474147647 16 76 76 1216 92416
811	20835832 4344 342318 463239 89.503259073688 120.754496554541 142 14 76 2980 117112
812	20840176 569 345382 458450 90.483762417508 119.600474147647 16 5.4e-05 5.4e-05 0.000864 4.6656e-08
814	20840745 3855 342318 463239 89.503259073688 120.754496554541 126 14 14 1764 24696
816	20844600 3848 342328 463249 89.503259842841 120.754497323694 126 14 14 1764 24696
817	20848448 3848 342328 463249 89.503259842841 120.754497323694 126 14 14 1764 24696
818	20852296 3879 342328 463249 89.503259842841 120.754497323694 127 14 76 1840 30472
819	20856175 3848 342328 463249 89.503259842841 120.754497323694 126 14 14 1764 24696
821	20860023 3849 342330 463251 89.503259884311 120.754497365164 126 14 14 1764 24696
822	20863872 3849 342330 463251 89.503259884311 120.754497365164 126 14 14 1764 24696
823	20867721 3880 342330 463251 89.503259884311 120.754497365164 127 14 76 1840 30472
824	20871601 3849 342330 463251 89.503259884311 120.754497365164 126 14 14 1764 24696
825	20875450 4107 342257 463178 89.503215073688 120.754452554541 126 1104 1104 139104 153570816
826	20879557 4107 342260 463181 89.503215073688 120.754452554541 126 1008 1008 127008 128024064
827	20883664 4107 342261 463182 89.503215073688 120.754452554541 126 1000 1000 126000 126000000
828	20887771 5367 342261 463182 89.503215073688 120.754452554541 126 0.002829184205 0.004901184205 0.461426110454 0.0017063911330621
829	20893138 3981 342261 463182 89.503215073688 120.754452554541 126 350 475 51975 21606375
830	20897119 426 343379 462508 89.974955923855 120.639968476723 14 48 48 672 32256
831	20897545 440 343379 462508 89.974955923855 120.639968476723 14 608 608 8512 5175296
832	20897985 824 343379 462510 89.974955923855 120.639968476723 28 0 1 14 14
833	20898809 852 343379 462510 89.974955923855 120.639968476723 28 0 608 8512 5175296
834	20899661 423 343379 462508 89.974955923855 120.639968476723 14 4 29 244 5102
835	20900084 412 343381 462510 89.974955923855 120.639968476723 14 0 0 0 0
836	20900496 440 343381 462510 89.974955923855 120.639968476723 14 608 608 8512 5175296
837	20900936 510 343381 462510 89.974955923855 120.639968476723 14 24000000 24000000 336000000 8.064e+15
838	20901446 426 343381 462510 89.974955923855 120.639968476723 14 76 76 1064 80864
839	20901872 1648 343382 462539 89.974955923855 120.640022476723 56 0 2 56 84
840	20903520 426 343409 462538 89.975009923855 120.640022476723 14 76 76 1064 80864
841	20903946 426 343409 462538 89.975009923855 120.640022476723 14 76 76 1064 80864
842	20904372 426 343409 462538 89.975009923855 120.640022476723 14 76 76 1064 80864
843	20904798 496 343409 462538 89.975009923855 120.640022476723 14 5.4e-05 5.4e-05 0.000756 4.0824e-08
844	20905294 4628 342004 463464 89.502030036108 120.917977178004 143 48 1076 136392 145918944
845	20909922 4645 342004 463464 89.502030036108 120.917977178004 143 608 8832 1123168 9834816512
846	20914567 8466 342004 463466 89.502030036108 120.917977178004 286 0 1 143 143
847	20923033 8878 342004 463466 89.502030036108 120.917977178004 286 0 8832 1123168 9834816512
848	20931911 4371 342004 463464 89.502030036108 120.917977178004 144 0 31 2366 48618
849	20936282 5113 342092 463466 89.502304036108 120.917977178004 143 0 0.000714 0.052104 2.4808216e-05
850	20941395 4645 342092 463466 89.502304036108 120.917977178004 143 608 8832 1123168 9834816512
851	20946040 9880 342000 463466 89.502030036108 120.917977178004 270 24000000 24000000 6480000000 1.5552e+17
852	20955920 8514 342022 463466 89.502040036108 120.917977178004 270 14 1104 143264 154912520
853	20964434 31960 342023 463495 89.502040036108 120.918031178004 1080 0 2 1080 1620
854	20996394 8514 342058 463494 89.502074036108 120.918031178004 270 14 1104 143264 154912520
855	21004908 522 345042 463494 90.343365359174 120.918031178004 17 76 76 1292 98192
856	21005430 8482 342058 463494 89.502074036108 120.918031178004 269 14 1104 142160 153693704
857	21013912 5963 342200 463494 89.502747196912 120.918031178004 143 5.4e-05 0.001335160804 0.057648261304 2.6381163647779e-05
858	21019875 520 342443 456702 89.700358276253 119.154875869391 17 48 48 816 39168
859	21020395 537 342443 456702 89.700358276253 119.154875869391 17 608 608 10336 6284288
860	21020932 1006 342443 456704 89.700358276253 119.154875869391 34 0 1 17 17
861	21021938 1040 342443 456704 89.700358276253 119.154875869391 34 0 608 10336 6284288
862	21022978 516 342443 456702 89.700358276253 119.154875869391 17 0 31 294 6630
863	21023494 503 342445 456704 89.700358276253 119.154875869391 17 0 0 0 0
864	21023997 537 342445 456704 89.700358276253 119.154875869391 17 608 608 10336 6284288
865	21024534 622 342445 456704 89.700358276253 119.154875869391 17 24000000 24000000 408000000 9.792e+15
866	21025156 520 342445 456704 89.700358276253 119.154875869391 17 76 76 1292 98192
867	21025676 2012 342446 456733 89.700358276253 119.154929869391 68 0 2 68 102
868	21027688 520 342473 456732 89.700412276253 119.154929869391 17 76 76 1292 98192
869	21028208 520 342473 456732 89.700412276253 119.154929869391 17 76 76 1292 98192
870	21028728 520 342473 456732 89.700412276253 119.154929869391 17 76 76 1292 98192
871	21029248 605 342473 456732 89.700412276253 119.154929869391 17 5.4e-05 5.4e-05 0.000918 4.9572e-08
873	21029853 7992 342058 463041 89.502074036108 120.753579516961 253 14 1104 141972 154814328
874	21037845 7950 342000 463121 89.502030036108 120.753624677765 252 14 1104 140868 153595512
877	21045795 4553 342711 462780 89.751360578815 120.751754696502 141 48 1076 135268 144758864
878	21050348 4569 342711 462780 89.751360578815 120.751754696502 141 608 8832 1113728 9756442624
879	21054917 8353 341955 462876 89.501631215649 120.752288696502 283 0 1 141 141
880	21063270 8760 341955 462876 89.501631215649 120.752288696502 283 0 8832 1113728 9756442624
881	21072030 4262 342711 462780 89.751360578815 120.751754696502 141 0 31 2258 47872
882	21076292 5069 341955 462876 89.501631215649 120.752288696502 142 0 0.000714 0.052224 2.5913176e-05
883	21081361 4601 341955 462876 89.501631215649 120.752288696502 142 608 8832 1122560 9834446848
884	21085962 9750 341955 462876 89.501631215649 120.752288696502 267 24000000 24000000 6408000000 1.53792e+17
885	21095712 8430 341883 462876 89.501507215649 120.752288696502 268 14 1104 142084 153687928
886	21104142 31640 341884 462905 89.501507215649 120.752686696502 1072 0 2 1072 1608
887	21135782 8430 341916 462904 89.501541215649 120.752686696502 268 14 1104 142084 153687928
888	21144212 488 346144 458357 90.564172043984 119.544723194611 16 76 76 1216 92416
889	21144700 8430 341916 462904 89.501541215649 120.752686696502 268 14 1104 142084 153687928
890	21153130 5928 342071 462992 89.502074856567 120.75273233742 142 5.4e-05 0.000443640918 0.056762755668 2.4845631279609e-05
892	21159058 7942 341916 462904 89.501541215649 120.752686696502 252 14 1104 140868 153595512
893	21167000 7913 342071 462992 89.502074856567 120.75273233742 251 14 1104 139764 152376696
896	21174913 518 348962 460454 91.298230619634 120.183277943171 17 48 48 816 39168
897	21175431 535 348962 460454 91.298230619634 120.183277943171 17 608 608 10336 6284288
898	21175966 1002 348962 460456 91.298230619634 120.183277943171 34 0 1 17 17
899	21176968 1036 348962 460456 91.298230619634 120.183277943171 34 0 608 10336 6284288
900	21178004 514 348962 460454 91.298230619634 120.183277943171 17 0 30 277 5907
901	21178518 514 348964 460456 91.298230619634 120.183277943171 17 0 0.000812023342 0.000812023342 6.5938190795285e-07
902	21179032 535 348964 460456 91.298230619634 120.183277943171 17 608 608 10336 6284288
903	21179567 620 348964 460456 91.298230619634 120.183277943171 17 24000000 24000000 408000000 9.792e+15
904	21180187 518 348964 460456 91.298230619634 120.183277943171 17 76 76 1292 98192
905	21180705 2004 348965 460485 91.298230619634 120.183331943171 68 0 2 68 102
906	21182709 518 348992 460484 91.298284619634 120.183331943171 17 76 76 1292 98192
907	21183227 518 348992 460484 91.298284619634 120.183331943171 17 76 76 1292 98192
908	21183745 518 348992 460484 91.298284619634 120.183331943171 17 76 76 1292 98192
909	21184263 603 348992 460484 91.298284619634 120.183331943171 17 5.4e-05 5.4e-05 0.000918 4.9572e-08
910	21184866 459 348180 461386 91.196693776638 120.393014904108 15 48 48 720 34560
911	21185325 474 348180 461386 91.196693776638 120.393014904108 15 608 608 9120 5544960
912	21185799 888 348180 461388 91.196693776638 120.393014904108 30 0 1 15 15
913	21186687 918 348180 461388 91.196693776638 120.393014904108 30 0 608 9120 5544960
914	21187605 455 348180 461386 91.196693776638 120.393014904108 15 0 30 219 4301
915	21188060 444 348182 461388 91.196693776638 120.393014904108 15 0 0 0 0
916	21188504 474 348182 461388 91.196693776638 120.393014904108 15 608 608 9120 5544960
917	21188978 549 348182 461388 91.196693776638 120.393014904108 15 24000000 24000000 360000000 8.64e+15
918	21189527 459 348182 461388 91.196693776638 120.393014904108 15 76 76 1140 86640
919	21189986 1776 348183 461417 91.196693776638 120.393068904108 60 0 2 60 90
920	21191762 459 348210 461416 91.196747776638 120.393068904108 15 76 76 1140 86640
921	21192221 459 348210 461416 91.196747776638 120.393068904108 15 76 76 1140 86640
922	21192680 459 348210 461416 91.196747776638 120.393068904108 15 76 76 1140 86640
923	21193139 534 348210 461416 91.196747776638 120.393068904108 15 5.4e-05 5.4e-05 0.00081 4.374e-08
924	21193673 489 348087 458497 91.186500358394 119.672639394177 16 48 48 768 36864
925	21194162 505 348087 458497 91.186500358394 119.672639394177 16 608 608 9728 5914624
926	21194667 946 348087 458499 91.186500358394 119.672639394177 32 0 1 16 16
927	21195613 978 348087 458499 91.186500358394 119.672639394177 32 0 608 9728 5914624
928	21196591 487 348087 458497 91.186500358394 119.672639394177 16 1 31 334 8048
929	21197078 473 348089 458499 91.186500358394 119.672639394177 16 0 0 0 0
930	21197551 505 348089 458499 91.186500358394 119.672639394177 16 608 608 9728 5914624
931	21198056 585 348089 458499 91.186500358394 119.672639394177 16 24000000 24000000 384000000 9.216e+15
932	21198641 489 348089 458499 91.186500358394 119.672639394177 16 76 76 1216 92416
933	21199130 1892 348090 458528 91.186500358394 119.672693394177 64 0 2 64 96
934	21201022 489 348117 458527 91.186554358394 119.672693394177 16 76 76 1216 92416
935	21201511 489 348117 458527 91.186554358394 119.672693394177 16 76 76 1216 92416
936	21202000 489 348117 458527 91.186554358394 119.672693394177 16 76 76 1216 92416
937	21202489 569 348117 458527 91.186554358394 119.672693394177 16 5.4e-05 5.4e-05 0.000864 4.6656e-08
938	21203058 488 346397 463387 90.720924417953 120.905457898509 16 48 48 768 36864
939	21203546 504 346397 463387 90.720924417953 120.905457898509 16 608 608 9728 5914624
940	21204050 944 346397 463389 90.720924417953 120.905457898509 32 0 1 16 16
941	21204994 976 346397 463389 90.720924417953 120.905457898509 32 0 608 9728 5914624
942	21205970 484 346397 463387 90.720924417953 120.905457898509 16 0 29 246 5180
943	21206454 472 346399 463389 90.720924417953 120.905457898509 16 0 0 0 0
944	21206926 504 346399 463389 90.720924417953 120.905457898509 16 608 608 9728 5914624
945	21207430 584 346399 463389 90.720924417953 120.905457898509 16 24000000 24000000 384000000 9.216e+15
946	21208014 488 346399 463389 90.720924417953 120.905457898509 16 76 76 1216 92416
947	21208502 1888 346400 463418 90.720924417953 120.905511898509 64 0 2 64 96
948	21210390 488 346427 463417 90.720978417953 120.905511898509 16 76 76 1216 92416
949	21210878 488 346427 463417 90.720978417953 120.905511898509 16 76 76 1216 92416
950	21211366 488 346427 463417 90.720978417953 120.905511898509 16 76 76 1216 92416
951	21211854 568 346427 463417 90.720978417953 120.905511898509 16 5.4e-05 5.4e-05 0.000864 4.6656e-08
952	21212422 30 353645 353645 92.502580438517 92.502580438517 1 76 76 76 5776
957	21212452 31 409703 409703 107.001230554069 107.001230554069 1 76 76 76 5776
958	21212483 31 409703 409703 107.001230554069 107.001230554069 1 76 76 76 5776
959	21212514 32 353673 353673 92.502954043425 92.502954043425 1 1104 1104 1104 1218816
960	21212546 33 409736 409736 107.001514233147 107.001514233147 1 1104 1104 1104 1218816
961	21212579 65 353675 409748 92.502954177743 107.001514541942 2 1104 1104 2208 2437632
963	21212644 30 353647 353647 92.502580462964 92.502580462964 1 76 76 76 5776
964	21212674 31 409711 409711 107.001230775576 107.001230775576 1 76 76 76 5776
965	21212705 31 409707 409707 107.001230632388 107.001230632388 1 76 76 76 5776
973	21212736 31 353677 353677 92.50295419885 92.50295419885 1 1104 1104 1104 1218816
974	21212767 32 353679 353679 92.502954408995 92.502954408995 1 1104 1104 1104 1218816
975	21212799 65 353681 409742 92.502954438907 107.001514295578 2 1104 1104 2208 2437632
976	21212864 32 353734 353734 92.503845618448 92.503845618448 1 1104 1104 1104 1218816
977	21212896 31 353743 353743 92.50384619885 92.50384619885 1 1104 1104 1104 1218816
978	21212927 31 409705 409705 107.001230588731 107.001230588731 1 76 76 76 5776
982	21212958 33 409744 409744 107.001514379316 107.001514379316 1 1104 1104 1104 1218816
983	21212991 31 409746 409746 107.0015145358 107.0015145358 1 1104 1104 1104 1218816
984	21213022 33 409798 409798 107.002385752606 107.002385752606 1 1104 1104 1104 1218816
985	21213055 33 409809 409809 107.002386295578 107.002386295578 1 1104 1104 1104 1218816
986	21213088 33 409738 409738 107.001514247015 107.001514247015 1 1104 1104 1104 1218816
990	21213121 9960 342133 463546 89.353012536396 121 318 0 94400 11225600 987740569600
991	21223081 9960 342224 463546 89.353506536396 121 318 0 94400 11225600 987740569600
992	21233041 9873 342578 463546 89.600503471789 121 315 0 94400 11237760 989962444800
993	21242914 9873 342668 463546 89.600717471789 121 315 0 94400 11237760 989962444800
994	21252787 9959 342004 463546 89.302309354962 121 318 0 94400 11320143.727971 1002023553989.9
995	21262746 9969 342092 463546 89.302663354962 121 318 0 94400 11320166.362814 998801922648.4
996	21272715 9881 342533 463546 89.550073238536 121 316 0 94400 11219520 994147430400
997	21282596 9881 342535 463546 89.550073238536 121 316 0 94400 11219520 994147430400
998	21292477 9896 342711 463546 89.551224564702 121 316 0 94400 11225600 989888512000
999	21302373 9987 341955 463546 89.251678564702 121 319 0 94400 11313920 997688934400
1000	21312360 10246 342261 463546 89.303656054685 121 318 0 80000 10160000 812800000000
1001	21322606 34 409740 409740 107.001514279732 107.001514279732 1 1104 1104 1104 1218816
1003	21322640 32 409709 409709 107.001230725574 107.001230725574 1 76 76 76 5776

