version 3
run QlHC_Moblity_0mps-1-20241108-16:35:57-59865
attr configname QlHC_Moblity_0mps
attr datetime 20241108-16:35:57
attr datetimef 20241108-163557
attr experiment QlHC_Moblity_0mps
attr inifile Net1Test.ini
attr iterationvars ""
attr iterationvarsd ""
attr iterationvarsf ""
attr measurement ""
attr network Net1Test
attr processid 59865
attr repetition 1
attr replication #1
attr resultdir results
attr runnumber 1
attr seedset 1
config image-path ../../inet4.4/images
config extends "StationaryMobility, QlHC"
config *.*.mobility.typename StationaryMobility
config *.*.routing.typename QlHC
config *.*.routing.beaconInterval 2s
config network Net1Test
config sim-time-limit 121s
config repeat 3
config **.wlan[*].radio.typename Ieee80211ScalarRadio
config **.wlan[*].bitrate 24Mbps
config **.wlan[*].radio.transmitter.power 3dBm
config *.Destination.wlan[*].radio.displayCommunicationRange true
config *.Source.wlan[*].radio.displayCommunicationRange true
config *.radioMedium.pathLoss.typename FreeSpacePathLoss
config *.visualizer.osgVisualizer.typename IntegratedOsgVisualizer
config *.visualizer.osgVisualizer.sceneVisualizer.clearColor "\"skyblue\""
config *.visualizer.osgVisualizer.sceneVisualizer.sceneImage "\"showcases/desert\""
config *.visualizer.osgVisualizer.sceneVisualizer.sceneImageSize 6000m
config *.visualizer.osgVisualizer.sceneVisualizer.axisLength 6200m
config *.visualizer.osgVisualizer.sceneVisualizer.sceneMinX -1000m
config *.visualizer.osgVisualizer.sceneVisualizer.sceneMinY -1000m
config *.visualizer.osgVisualizer.sceneVisualizer.sceneMinZ 100m
config *.visualizer.osgVisualizer.sceneVisualizer.sceneMaxX 6100m
config *.visualizer.osgVisualizer.sceneVisualizer.sceneMaxY 6100m
config *.visualizer.osgVisualizer.sceneVisualizer.sceneMaxZ 1000m
config *.visualizer.*.networkRouteVisualizer.displayRoutes true
config *.visualizer.*.networkRouteVisualizer[0].packetFilter "\"UDP*\""
config *.visualizer.*.infoVisualizer.modules "\"*.*.app[0]\""
config *.visualizer.*.infoVisualizer.format "\"%t\""
config *.visualizer.*.infoVisualizer.placementHint "\"topCenter\""
config *.Source.numApps 1
config *.Source.app[0].typename UdpBasicApp
config *.Source.app[0].destAddresses "\"Destination\""
config *.Source.app[0].destPort 1000
config *.Source.app[0].sendInterval normal(250ms,10us)
config *.Source.app[0].startTime 2s
config *.Source.app[0].messageLength 1000Byte
config *.Source.app[0].packetName "\"UDPdata\""
config *.Destination.numApps 1
config *.Destination.app[0].typename UdpSink
config *.Destination.app[0].localPort 1000
config *.*.mobility.constraintAreaMinX 0m
config *.*.mobility.constraintAreaMinY 0m
config *.*.mobility.constraintAreaMinZ 0m
config *.*.mobility.constraintAreaMaxX 1000m
config *.*.mobility.constraintAreaMaxY 7500m
config *.*.mobility.constraintAreaMaxZ 0m

par Net1Test.radioMedium.propagation typename "\"inet.physicallayer.wireless.common.propagation.ConstantSpeedPropagation\""
par Net1Test.radioMedium.propagation propagationSpeed 2.99792e+08mps
attr unit mps
par Net1Test.radioMedium.propagation ignoreMovementDuringTransmission true
par Net1Test.radioMedium.propagation ignoreMovementDuringPropagation true
par Net1Test.radioMedium.propagation ignoreMovementDuringReception true
scalar Net1Test.radioMedium.propagation "Arrival computation count" 296300
par Net1Test.radioMedium.analogModel typename "\"inet.physicallayer.wireless.common.analogmodel.packetlevel.ScalarAnalogModel\""
par Net1Test.radioMedium.analogModel ignorePartialInterference false
par Net1Test.radioMedium.backgroundNoise typename "\"inet.physicallayer.wireless.common.backgroundnoise.IsotropicScalarBackgroundNoise\""
par Net1Test.radioMedium.backgroundNoise power -110dBm
attr unit dBm
par Net1Test.radioMedium.backgroundNoise bandwidth "nan Hz"
attr unit Hz
par Net1Test.radioMedium.pathLoss typename "\"inet.physicallayer.wireless.common.pathloss.FreeSpacePathLoss\""
par Net1Test.radioMedium.pathLoss alpha 2
par Net1Test.radioMedium.pathLoss systemLoss 0dB
attr unit dB
par Net1Test.radioMedium.mediumLimitCache typename "\"inet.physicallayer.wireless.common.medium.MediumLimitCache\""
par Net1Test.radioMedium.mediumLimitCache centerFrequency 2.4e+09Hz
attr unit Hz
par Net1Test.radioMedium.mediumLimitCache maxSpeed "nan mps"
attr unit mps
par Net1Test.radioMedium.mediumLimitCache maxTransmissionPower "nan W"
attr unit W
par Net1Test.radioMedium.mediumLimitCache minInterferencePower -110dBm
attr unit dBm
par Net1Test.radioMedium.mediumLimitCache minReceptionPower -85dBm
attr unit dBm
par Net1Test.radioMedium.mediumLimitCache maxAntennaGain 0dB
attr unit dB
par Net1Test.radioMedium.mediumLimitCache minInterferenceTime 1e-12s
attr unit s
par Net1Test.radioMedium.mediumLimitCache maxTransmissionDuration 0.01s
attr unit s
par Net1Test.radioMedium.mediumLimitCache maxCommunicationRange "nan m"
attr unit m
par Net1Test.radioMedium.mediumLimitCache maxInterferenceRange "nan m"
attr unit m
par Net1Test.radioMedium.communicationCache typename "\"inet.physicallayer.wireless.common.communicationcache.VectorCommunicationCache\""
par Net1Test.radioMedium typename "\"inet.physicallayer.wireless.ieee80211.packetlevel.Ieee80211ScalarRadioMedium\""
par Net1Test.radioMedium physicalEnvironmentModule "\"physicalEnvironment\""
par Net1Test.radioMedium signalAnalogRepresentation "\"scalar\""
attr enum unitDisk,scalar,dimensional
par Net1Test.radioMedium rangeFilter "\"\""
par Net1Test.radioMedium radioModeFilter false
par Net1Test.radioMedium listeningFilter false
par Net1Test.radioMedium macAddressFilter false
par Net1Test.radioMedium recordTransmissionLog false
par Net1Test.radioMedium recordReceptionLog false
scalar Net1Test.radioMedium "transmission count" 11852
scalar Net1Test.radioMedium "signal send count" 296300
scalar Net1Test.radioMedium "reception computation count" 296300
scalar Net1Test.radioMedium "interference computation count" 893491
scalar Net1Test.radioMedium "reception decision computation count" 85623
scalar Net1Test.radioMedium "listening decision computation count" 512009
scalar Net1Test.radioMedium "reception cache hit" 79.78378267737
attr unit %
scalar Net1Test.radioMedium "interference cache hit" 66.666666666667
attr unit %
scalar Net1Test.radioMedium "noise cache hit" 0
attr unit %
scalar Net1Test.radioMedium "snir cache hit" 50
attr unit %
scalar Net1Test.radioMedium "reception decision cache hit" 50
attr unit %
scalar Net1Test.radioMedium "reception result cache hit" 0
attr unit %
par Net1Test.visualizer.canvasVisualizer.sceneVisualizer typename "\"inet.visualizer.canvas.scene.SceneCanvasVisualizer\""
par Net1Test.visualizer.canvasVisualizer.sceneVisualizer visualizationTargetModule "\"^.^.^\""
par Net1Test.visualizer.canvasVisualizer.sceneVisualizer visualizationSubjectModule "\"^.^.^\""
par Net1Test.visualizer.canvasVisualizer.sceneVisualizer tags "\"\""
par Net1Test.visualizer.canvasVisualizer.sceneVisualizer physicalEnvironmentModule "\"physicalEnvironment\""
par Net1Test.visualizer.canvasVisualizer.sceneVisualizer networkNodeVisualizerModule "\"^.networkNodeVisualizer\""
par Net1Test.visualizer.canvasVisualizer.sceneVisualizer axisLength "nan m"
attr mutable ""
attr unit m
par Net1Test.visualizer.canvasVisualizer.sceneVisualizer animationSpeed 0
par Net1Test.visualizer.canvasVisualizer.sceneVisualizer sceneMinX "nan m"
attr unit m
par Net1Test.visualizer.canvasVisualizer.sceneVisualizer sceneMinY "nan m"
attr unit m
par Net1Test.visualizer.canvasVisualizer.sceneVisualizer sceneMinZ "nan m"
attr unit m
par Net1Test.visualizer.canvasVisualizer.sceneVisualizer sceneMaxX "nan m"
attr unit m
par Net1Test.visualizer.canvasVisualizer.sceneVisualizer sceneMaxY "nan m"
attr unit m
par Net1Test.visualizer.canvasVisualizer.sceneVisualizer sceneMaxZ "nan m"
attr unit m
par Net1Test.visualizer.canvasVisualizer.sceneVisualizer zIndex 0
par Net1Test.visualizer.canvasVisualizer.sceneVisualizer viewAngle "\"x right y down z out\""
attr mutable ""
par Net1Test.visualizer.canvasVisualizer.sceneVisualizer viewScale "\"1 1\""
attr mutable ""
par Net1Test.visualizer.canvasVisualizer.sceneVisualizer viewTranslation "\"0 0\""
attr mutable ""
par Net1Test.visualizer.canvasVisualizer.sceneVisualizer descriptionFigure "\"\""
par Net1Test.visualizer.canvasVisualizer.physicalEnvironmentVisualizer typename "\"inet.visualizer.canvas.environment.PhysicalEnvironmentCanvasVisualizer\""
par Net1Test.visualizer.canvasVisualizer.physicalEnvironmentVisualizer visualizationTargetModule "\"^.^.^\""
par Net1Test.visualizer.canvasVisualizer.physicalEnvironmentVisualizer visualizationSubjectModule "\"^.^.^\""
par Net1Test.visualizer.canvasVisualizer.physicalEnvironmentVisualizer tags "\"\""
par Net1Test.visualizer.canvasVisualizer.physicalEnvironmentVisualizer physicalEnvironmentModule "\"physicalEnvironment\""
par Net1Test.visualizer.canvasVisualizer.physicalEnvironmentVisualizer displayObjects true
par Net1Test.visualizer.canvasVisualizer.physicalEnvironmentVisualizer zIndex 0
par Net1Test.visualizer.canvasVisualizer.networkNodeVisualizer typename "\"inet.visualizer.canvas.scene.NetworkNodeCanvasVisualizer\""
par Net1Test.visualizer.canvasVisualizer.networkNodeVisualizer visualizationTargetModule "\"^.^.^\""
par Net1Test.visualizer.canvasVisualizer.networkNodeVisualizer visualizationSubjectModule "\"^.^.^\""
par Net1Test.visualizer.canvasVisualizer.networkNodeVisualizer tags "\"\""
par Net1Test.visualizer.canvasVisualizer.networkNodeVisualizer nodeFilter "\"*\""
attr mutable ""
par Net1Test.visualizer.canvasVisualizer.networkNodeVisualizer annotationSpacing 4
par Net1Test.visualizer.canvasVisualizer.networkNodeVisualizer placementPenalty 10
par Net1Test.visualizer.canvasVisualizer.networkNodeVisualizer zIndex 0
par Net1Test.visualizer.canvasVisualizer.networkConnectionVisualizer typename "\"inet.visualizer.canvas.scene.NetworkConnectionCanvasVisualizer\""
par Net1Test.visualizer.canvasVisualizer.networkConnectionVisualizer visualizationTargetModule "\"^.^.^\""
par Net1Test.visualizer.canvasVisualizer.networkConnectionVisualizer visualizationSubjectModule "\"^.^.^\""
par Net1Test.visualizer.canvasVisualizer.networkConnectionVisualizer tags "\"\""
par Net1Test.visualizer.canvasVisualizer.networkConnectionVisualizer displayNetworkConnections true
par Net1Test.visualizer.canvasVisualizer.networkConnectionVisualizer nodeFilter "\"\""
attr mutable ""
par Net1Test.visualizer.canvasVisualizer.networkConnectionVisualizer lineColor "\"black\""
par Net1Test.visualizer.canvasVisualizer.networkConnectionVisualizer lineStyle "\"solid\""
par Net1Test.visualizer.canvasVisualizer.networkConnectionVisualizer lineWidth 1
par Net1Test.visualizer.canvasVisualizer.networkConnectionVisualizer zIndex 0
par Net1Test.visualizer.canvasVisualizer.mobilityVisualizer typename "\"inet.visualizer.canvas.mobility.MobilityCanvasVisualizer\""
par Net1Test.visualizer.canvasVisualizer.mobilityVisualizer visualizationTargetModule "\"^.^.^\""
par Net1Test.visualizer.canvasVisualizer.mobilityVisualizer visualizationSubjectModule "\"^.^.^\""
par Net1Test.visualizer.canvasVisualizer.mobilityVisualizer tags "\"\""
par Net1Test.visualizer.canvasVisualizer.mobilityVisualizer networkNodeVisualizerModule "\"^.networkNodeVisualizer\""
par Net1Test.visualizer.canvasVisualizer.mobilityVisualizer displayMobility true
par Net1Test.visualizer.canvasVisualizer.mobilityVisualizer animationSpeed 0
par Net1Test.visualizer.canvasVisualizer.mobilityVisualizer moduleFilter "\"**.mobility\""
attr mutable ""
par Net1Test.visualizer.canvasVisualizer.mobilityVisualizer displayPositions false
par Net1Test.visualizer.canvasVisualizer.mobilityVisualizer positionCircleRadius 4
par Net1Test.visualizer.canvasVisualizer.mobilityVisualizer positionCircleLineWidth 1
par Net1Test.visualizer.canvasVisualizer.mobilityVisualizer positionCircleLineColor "\"dark\""
attr enum light,dark
par Net1Test.visualizer.canvasVisualizer.mobilityVisualizer positionCircleFillColor "\"dark\""
attr enum light,dark
par Net1Test.visualizer.canvasVisualizer.mobilityVisualizer displayOrientations false
par Net1Test.visualizer.canvasVisualizer.mobilityVisualizer orientationPieRadius 32
par Net1Test.visualizer.canvasVisualizer.mobilityVisualizer orientationPieSize 0.2
par Net1Test.visualizer.canvasVisualizer.mobilityVisualizer orientationPieOpacity 0.25
par Net1Test.visualizer.canvasVisualizer.mobilityVisualizer orientationLineColor "\"black\""
par Net1Test.visualizer.canvasVisualizer.mobilityVisualizer orientationLineStyle "\"solid\""
par Net1Test.visualizer.canvasVisualizer.mobilityVisualizer orientationLineWidth 1
par Net1Test.visualizer.canvasVisualizer.mobilityVisualizer orientationFillColor "\"blue\""
par Net1Test.visualizer.canvasVisualizer.mobilityVisualizer displayVelocities false
par Net1Test.visualizer.canvasVisualizer.mobilityVisualizer velocityArrowScale 1
par Net1Test.visualizer.canvasVisualizer.mobilityVisualizer velocityLineColor "\"black\""
par Net1Test.visualizer.canvasVisualizer.mobilityVisualizer velocityLineStyle "\"solid\""
par Net1Test.visualizer.canvasVisualizer.mobilityVisualizer velocityLineWidth 1
par Net1Test.visualizer.canvasVisualizer.mobilityVisualizer displayMovementTrails false
par Net1Test.visualizer.canvasVisualizer.mobilityVisualizer movementTrailLineColor "\"dark\""
attr enum light,dark
par Net1Test.visualizer.canvasVisualizer.mobilityVisualizer movementTrailLineStyle "\"solid\""
par Net1Test.visualizer.canvasVisualizer.mobilityVisualizer movementTrailLineWidth 1
par Net1Test.visualizer.canvasVisualizer.mobilityVisualizer trailLength 100
par Net1Test.visualizer.canvasVisualizer.mobilityVisualizer zIndex 0
par Net1Test.visualizer.canvasVisualizer.statisticVisualizer typename "\"inet.visualizer.canvas.common.StatisticCanvasVisualizer\""
par Net1Test.visualizer.canvasVisualizer.statisticVisualizer visualizationTargetModule "\"^.^.^\""
par Net1Test.visualizer.canvasVisualizer.statisticVisualizer visualizationSubjectModule "\"^.^.^\""
par Net1Test.visualizer.canvasVisualizer.statisticVisualizer tags "\"\""
par Net1Test.visualizer.canvasVisualizer.statisticVisualizer networkNodeVisualizerModule "\"^.networkNodeVisualizer\""
par Net1Test.visualizer.canvasVisualizer.statisticVisualizer displayStatistics true
par Net1Test.visualizer.canvasVisualizer.statisticVisualizer signalName "\"\""
par Net1Test.visualizer.canvasVisualizer.statisticVisualizer statisticName "\"\""
par Net1Test.visualizer.canvasVisualizer.statisticVisualizer statisticUnit "\"\""
par Net1Test.visualizer.canvasVisualizer.statisticVisualizer statisticExpression "\"\""
par Net1Test.visualizer.canvasVisualizer.statisticVisualizer sourceFilter "\"**\""
attr mutable ""
par Net1Test.visualizer.canvasVisualizer.statisticVisualizer format "\"%n: %v %u\""
attr mutable ""
par Net1Test.visualizer.canvasVisualizer.statisticVisualizer unit "\"\""
par Net1Test.visualizer.canvasVisualizer.statisticVisualizer font "\"<default>\""
par Net1Test.visualizer.canvasVisualizer.statisticVisualizer textColor "\"black\""
par Net1Test.visualizer.canvasVisualizer.statisticVisualizer backgroundColor "\"white\""
par Net1Test.visualizer.canvasVisualizer.statisticVisualizer opacity 1
par Net1Test.visualizer.canvasVisualizer.statisticVisualizer placementHint "\"top\""
par Net1Test.visualizer.canvasVisualizer.statisticVisualizer placementPriority 0
par Net1Test.visualizer.canvasVisualizer.statisticVisualizer zIndex 10
par Net1Test.visualizer.canvasVisualizer.statisticVisualizer propertyName "\"\""
par Net1Test.visualizer.canvasVisualizer.statisticVisualizer propertyIndex "\"\""
par Net1Test.visualizer.canvasVisualizer.infoVisualizer typename "\"inet.visualizer.canvas.common.InfoCanvasVisualizer\""
par Net1Test.visualizer.canvasVisualizer.infoVisualizer visualizationTargetModule "\"^.^.^\""
par Net1Test.visualizer.canvasVisualizer.infoVisualizer visualizationSubjectModule "\"^.^.^\""
par Net1Test.visualizer.canvasVisualizer.infoVisualizer tags "\"\""
par Net1Test.visualizer.canvasVisualizer.infoVisualizer networkNodeVisualizerModule "\"^.networkNodeVisualizer\""
par Net1Test.visualizer.canvasVisualizer.infoVisualizer displayInfos true
par Net1Test.visualizer.canvasVisualizer.infoVisualizer modules "\"*.*.app[0]\""
attr mutable ""
par Net1Test.visualizer.canvasVisualizer.infoVisualizer format "\"%t\""
attr mutable ""
par Net1Test.visualizer.canvasVisualizer.infoVisualizer font "\"<default>\""
par Net1Test.visualizer.canvasVisualizer.infoVisualizer textColor "\"black\""
par Net1Test.visualizer.canvasVisualizer.infoVisualizer backgroundColor "\"white\""
par Net1Test.visualizer.canvasVisualizer.infoVisualizer opacity 1
par Net1Test.visualizer.canvasVisualizer.infoVisualizer placementHint "\"topCenter\""
par Net1Test.visualizer.canvasVisualizer.infoVisualizer placementPriority 0
par Net1Test.visualizer.canvasVisualizer.infoVisualizer zIndex 10
par Net1Test.visualizer.canvasVisualizer.energyStorageVisualizer typename "\"inet.visualizer.canvas.power.EnergyStorageCanvasVisualizer\""
par Net1Test.visualizer.canvasVisualizer.energyStorageVisualizer visualizationTargetModule "\"^.^.^\""
par Net1Test.visualizer.canvasVisualizer.energyStorageVisualizer visualizationSubjectModule "\"^.^.^\""
par Net1Test.visualizer.canvasVisualizer.energyStorageVisualizer tags "\"\""
par Net1Test.visualizer.canvasVisualizer.energyStorageVisualizer networkNodeVisualizerModule "\"^.networkNodeVisualizer\""
par Net1Test.visualizer.canvasVisualizer.energyStorageVisualizer displayEnergyStorages false
par Net1Test.visualizer.canvasVisualizer.energyStorageVisualizer energyStorageFilter "\"**\""
par Net1Test.visualizer.canvasVisualizer.energyStorageVisualizer color "\"green\""
par Net1Test.visualizer.canvasVisualizer.energyStorageVisualizer width 8
par Net1Test.visualizer.canvasVisualizer.energyStorageVisualizer height 24
par Net1Test.visualizer.canvasVisualizer.energyStorageVisualizer spacing 2
par Net1Test.visualizer.canvasVisualizer.energyStorageVisualizer placementHint "\"right\""
par Net1Test.visualizer.canvasVisualizer.energyStorageVisualizer placementPriority 0
par Net1Test.visualizer.canvasVisualizer.energyStorageVisualizer zIndex 10
par Net1Test.visualizer.canvasVisualizer.mediumVisualizer typename "\"inet.visualizer.canvas.physicallayer.MediumCanvasVisualizer\""
par Net1Test.visualizer.canvasVisualizer.mediumVisualizer visualizationTargetModule "\"^.^.^\""
par Net1Test.visualizer.canvasVisualizer.mediumVisualizer visualizationSubjectModule "\"^.^.^\""
par Net1Test.visualizer.canvasVisualizer.mediumVisualizer tags "\"\""
par Net1Test.visualizer.canvasVisualizer.mediumVisualizer mediumModule "\"radioMedium\""
par Net1Test.visualizer.canvasVisualizer.mediumVisualizer networkNodeVisualizerModule "\"^.networkNodeVisualizer\""
par Net1Test.visualizer.canvasVisualizer.mediumVisualizer nodeFilter "\"*\""
attr mutable ""
par Net1Test.visualizer.canvasVisualizer.mediumVisualizer interfaceFilter "\"*\""
attr mutable ""
par Net1Test.visualizer.canvasVisualizer.mediumVisualizer packetFilter "(omnetpp::cValueHolder)holder: \"*\""
attr mutable ""
par Net1Test.visualizer.canvasVisualizer.mediumVisualizer displaySignals false
par Net1Test.visualizer.canvasVisualizer.mediumVisualizer signalColor "\"dark\""
attr enum light,dark
par Net1Test.visualizer.canvasVisualizer.mediumVisualizer signalPropagationAnimationSpeed "nan "
attr mutable ""
par Net1Test.visualizer.canvasVisualizer.mediumVisualizer signalPropagationAnimationTime 1s
attr unit s
par Net1Test.visualizer.canvasVisualizer.mediumVisualizer signalPropagationAdditionalTime 0s
attr unit s
par Net1Test.visualizer.canvasVisualizer.mediumVisualizer signalTransmissionAnimationSpeed "nan "
attr mutable ""
par Net1Test.visualizer.canvasVisualizer.mediumVisualizer signalTransmissionAnimationTime 1s
attr unit s
par Net1Test.visualizer.canvasVisualizer.mediumVisualizer signalAnimationSpeedChangeTimeMode "\"realTime\""
attr enum realTime,animationTime,simulationTime
par Net1Test.visualizer.canvasVisualizer.mediumVisualizer signalAnimationSpeedChangeTime 1s
attr unit s
par Net1Test.visualizer.canvasVisualizer.mediumVisualizer displaySignalDepartures false
par Net1Test.visualizer.canvasVisualizer.mediumVisualizer signalDepartureImage "\"misc/signal_departure.png\""
par Net1Test.visualizer.canvasVisualizer.mediumVisualizer signalDeparturePlacementHint "\"topCenter\""
par Net1Test.visualizer.canvasVisualizer.mediumVisualizer signalDeparturePlacementPriority 1
par Net1Test.visualizer.canvasVisualizer.mediumVisualizer displaySignalArrivals false
par Net1Test.visualizer.canvasVisualizer.mediumVisualizer signalArrivalImage "\"misc/signal_arrival.png\""
par Net1Test.visualizer.canvasVisualizer.mediumVisualizer signalArrivalPlacementHint "\"topCenter\""
par Net1Test.visualizer.canvasVisualizer.mediumVisualizer signalArrivalPlacementPriority -1
par Net1Test.visualizer.canvasVisualizer.mediumVisualizer displayCommunicationRanges false
par Net1Test.visualizer.canvasVisualizer.mediumVisualizer communicationRangeLineColor "\"blue\""
par Net1Test.visualizer.canvasVisualizer.mediumVisualizer communicationRangeLineStyle "\"solid\""
par Net1Test.visualizer.canvasVisualizer.mediumVisualizer communicationRangeLineWidth 1
par Net1Test.visualizer.canvasVisualizer.mediumVisualizer displayInterferenceRanges false
par Net1Test.visualizer.canvasVisualizer.mediumVisualizer interferenceRangeLineColor "\"gray\""
par Net1Test.visualizer.canvasVisualizer.mediumVisualizer interferenceRangeLineStyle "\"solid\""
par Net1Test.visualizer.canvasVisualizer.mediumVisualizer interferenceRangeLineWidth 1
par Net1Test.visualizer.canvasVisualizer.mediumVisualizer autoPowerAxis true
par Net1Test.visualizer.canvasVisualizer.mediumVisualizer signalMinPower "inf dBmW"
attr unit dBmW
par Net1Test.visualizer.canvasVisualizer.mediumVisualizer signalMaxPower 0dBmW
attr unit dBmW
par Net1Test.visualizer.canvasVisualizer.mediumVisualizer signalMinPowerDensity "inf dBmWpMHz"
attr unit dBmWpMHz
par Net1Test.visualizer.canvasVisualizer.mediumVisualizer signalMaxPowerDensity "-inf dBmWpMHz"
attr unit dBmWpMHz
par Net1Test.visualizer.canvasVisualizer.mediumVisualizer autoTimeAxis true
par Net1Test.visualizer.canvasVisualizer.mediumVisualizer signalMinTime 0s
attr unit s
par Net1Test.visualizer.canvasVisualizer.mediumVisualizer signalMaxTime 0s
attr unit s
par Net1Test.visualizer.canvasVisualizer.mediumVisualizer autoFrequencyAxis true
par Net1Test.visualizer.canvasVisualizer.mediumVisualizer signalMinFrequency "inf Hz"
attr unit Hz
par Net1Test.visualizer.canvasVisualizer.mediumVisualizer signalMaxFrequency "-inf Hz"
attr unit Hz
par Net1Test.visualizer.canvasVisualizer.mediumVisualizer displayMainPowerDensityMap false
par Net1Test.visualizer.canvasVisualizer.mediumVisualizer mainPowerDensityMapPixmapDensity 1
par Net1Test.visualizer.canvasVisualizer.mediumVisualizer mainPowerDensityMapMinX 0
par Net1Test.visualizer.canvasVisualizer.mediumVisualizer mainPowerDensityMapMaxX "nan "
par Net1Test.visualizer.canvasVisualizer.mediumVisualizer mainPowerDensityMapMinY 0
par Net1Test.visualizer.canvasVisualizer.mediumVisualizer mainPowerDensityMapMaxY "nan "
par Net1Test.visualizer.canvasVisualizer.mediumVisualizer mainPowerDensityMapZ 0
par Net1Test.visualizer.canvasVisualizer.mediumVisualizer mainPowerDensityMapFigureXTickCount 3
par Net1Test.visualizer.canvasVisualizer.mediumVisualizer mainPowerDensityMapFigureYTickCount 3
par Net1Test.visualizer.canvasVisualizer.mediumVisualizer displayPowerDensityMaps false
par Net1Test.visualizer.canvasVisualizer.mediumVisualizer powerDensityMapMode "\"auto\""
attr enum total,signal,auto
par Net1Test.visualizer.canvasVisualizer.mediumVisualizer powerDensityMapPixelMode "\"mean\""
attr enum sample,partition,mean
par Net1Test.visualizer.canvasVisualizer.mediumVisualizer powerDensityMapApproximationSize 10
par Net1Test.visualizer.canvasVisualizer.mediumVisualizer powerDensityMapCenterFrequency "nan Hz"
attr mutable ""
attr unit Hz
par Net1Test.visualizer.canvasVisualizer.mediumVisualizer powerDensityMapBandwidth 0Hz
attr mutable ""
attr unit Hz
par Net1Test.visualizer.canvasVisualizer.mediumVisualizer powerDensityMapFigureWidth 200
par Net1Test.visualizer.canvasVisualizer.mediumVisualizer powerDensityMapFigureHeight 120
par Net1Test.visualizer.canvasVisualizer.mediumVisualizer powerDensityMapPixmapWidth 200
par Net1Test.visualizer.canvasVisualizer.mediumVisualizer powerDensityMapPixmapHeight 120
par Net1Test.visualizer.canvasVisualizer.mediumVisualizer powerDensityMapZ 0
par Net1Test.visualizer.canvasVisualizer.mediumVisualizer powerDensityMapFigureXTickCount 3
par Net1Test.visualizer.canvasVisualizer.mediumVisualizer powerDensityMapFigureYTickCount 3
par Net1Test.visualizer.canvasVisualizer.mediumVisualizer displaySpectrums false
par Net1Test.visualizer.canvasVisualizer.mediumVisualizer spectrumMode "\"auto\""
attr enum total,signal,auto
par Net1Test.visualizer.canvasVisualizer.mediumVisualizer spectrumFigureWidth 200
par Net1Test.visualizer.canvasVisualizer.mediumVisualizer spectrumFigureHeight 120
par Net1Test.visualizer.canvasVisualizer.mediumVisualizer spectrumFigureXTickCount 3
par Net1Test.visualizer.canvasVisualizer.mediumVisualizer spectrumFigureYTickCount 5
par Net1Test.visualizer.canvasVisualizer.mediumVisualizer spectrumFigureInterpolationSize 5
par Net1Test.visualizer.canvasVisualizer.mediumVisualizer spectrumPlacementHint "\"bottomCenter\""
par Net1Test.visualizer.canvasVisualizer.mediumVisualizer spectrumPlacementPriority -1
par Net1Test.visualizer.canvasVisualizer.mediumVisualizer displaySpectrograms false
par Net1Test.visualizer.canvasVisualizer.mediumVisualizer spectrogramMode "\"auto\""
attr enum total,signal,auto
par Net1Test.visualizer.canvasVisualizer.mediumVisualizer spectrogramPixelMode "\"mean\""
attr enum sample,partition,mean
par Net1Test.visualizer.canvasVisualizer.mediumVisualizer spectrogramFigureWidth 200
par Net1Test.visualizer.canvasVisualizer.mediumVisualizer spectrogramFigureHeight 120
par Net1Test.visualizer.canvasVisualizer.mediumVisualizer spectrogramPixmapWidth 200
par Net1Test.visualizer.canvasVisualizer.mediumVisualizer spectrogramPixmapHeight 120
par Net1Test.visualizer.canvasVisualizer.mediumVisualizer spectrogramFigureXTickCount 3
par Net1Test.visualizer.canvasVisualizer.mediumVisualizer spectrogramFigureYTickCount 5
par Net1Test.visualizer.canvasVisualizer.mediumVisualizer spectrogramPlacementHint "\"bottomCenter\""
par Net1Test.visualizer.canvasVisualizer.mediumVisualizer spectrogramPlacementPriority -1
par Net1Test.visualizer.canvasVisualizer.mediumVisualizer zIndex 0
par Net1Test.visualizer.canvasVisualizer.mediumVisualizer signalShape "\"ring\""
attr enum ring,sphere
par Net1Test.visualizer.canvasVisualizer.mediumVisualizer signalOpacity 0.5
par Net1Test.visualizer.canvasVisualizer.mediumVisualizer signalRingCount 20
par Net1Test.visualizer.canvasVisualizer.mediumVisualizer signalRingSize 50m
attr unit m
par Net1Test.visualizer.canvasVisualizer.mediumVisualizer signalFadingDistance 50m
attr unit m
par Net1Test.visualizer.canvasVisualizer.mediumVisualizer signalFadingFactor 1.2
par Net1Test.visualizer.canvasVisualizer.mediumVisualizer signalWaveCount 20
par Net1Test.visualizer.canvasVisualizer.mediumVisualizer signalWaveLength 50m
attr unit m
par Net1Test.visualizer.canvasVisualizer.mediumVisualizer signalWaveWidth 10m
attr unit m
par Net1Test.visualizer.canvasVisualizer.mediumVisualizer signalWaveFadingAnimationSpeedFactor 1
par Net1Test.visualizer.canvasVisualizer.mediumVisualizer displayCommunicationHeat false
par Net1Test.visualizer.canvasVisualizer.obstacleLossVisualizer typename "\"inet.visualizer.canvas.physicallayer.TracingObstacleLossCanvasVisualizer\""
par Net1Test.visualizer.canvasVisualizer.obstacleLossVisualizer visualizationTargetModule "\"^.^.^\""
par Net1Test.visualizer.canvasVisualizer.obstacleLossVisualizer visualizationSubjectModule "\"^.^.^\""
par Net1Test.visualizer.canvasVisualizer.obstacleLossVisualizer tags "\"\""
par Net1Test.visualizer.canvasVisualizer.obstacleLossVisualizer displayIntersections false
par Net1Test.visualizer.canvasVisualizer.obstacleLossVisualizer intersectionLineColor "\"red\""
par Net1Test.visualizer.canvasVisualizer.obstacleLossVisualizer intersectionLineStyle "\"solid\""
par Net1Test.visualizer.canvasVisualizer.obstacleLossVisualizer intersectionLineWidth 1
par Net1Test.visualizer.canvasVisualizer.obstacleLossVisualizer displayFaceNormalVectors false
par Net1Test.visualizer.canvasVisualizer.obstacleLossVisualizer faceNormalLineColor "\"grey\""
par Net1Test.visualizer.canvasVisualizer.obstacleLossVisualizer faceNormalLineStyle "\"solid\""
par Net1Test.visualizer.canvasVisualizer.obstacleLossVisualizer faceNormalLineWidth 1
par Net1Test.visualizer.canvasVisualizer.obstacleLossVisualizer fadeOutMode "\"realTime\""
attr enum realTime,animationTime,simulationTime
par Net1Test.visualizer.canvasVisualizer.obstacleLossVisualizer fadeOutTime 1s
attr unit s
par Net1Test.visualizer.canvasVisualizer.obstacleLossVisualizer fadeOutAnimationSpeed 0
par Net1Test.visualizer.canvasVisualizer.obstacleLossVisualizer zIndex 0
par Net1Test.visualizer.canvasVisualizer.packetDropVisualizer typename "\"inet.visualizer.canvas.common.PacketDropCanvasVisualizer\""
par Net1Test.visualizer.canvasVisualizer.packetDropVisualizer visualizationTargetModule "\"^.^.^\""
par Net1Test.visualizer.canvasVisualizer.packetDropVisualizer visualizationSubjectModule "\"^.^.^\""
par Net1Test.visualizer.canvasVisualizer.packetDropVisualizer tags "\"\""
par Net1Test.visualizer.canvasVisualizer.packetDropVisualizer displayPacketDrops false
par Net1Test.visualizer.canvasVisualizer.packetDropVisualizer nodeFilter "\"*\""
attr mutable ""
par Net1Test.visualizer.canvasVisualizer.packetDropVisualizer interfaceFilter "\"*\""
attr mutable ""
par Net1Test.visualizer.canvasVisualizer.packetDropVisualizer packetFilter "(omnetpp::cValueHolder)holder: \"*\""
attr mutable ""
par Net1Test.visualizer.canvasVisualizer.packetDropVisualizer detailsFilter "\"*\""
attr mutable ""
par Net1Test.visualizer.canvasVisualizer.packetDropVisualizer icon "\"msg/packet_s\""
par Net1Test.visualizer.canvasVisualizer.packetDropVisualizer iconTintAmount 1
par Net1Test.visualizer.canvasVisualizer.packetDropVisualizer iconTintColor "\"dark\""
par Net1Test.visualizer.canvasVisualizer.packetDropVisualizer labelFormat "\"%n\""
attr mutable ""
par Net1Test.visualizer.canvasVisualizer.packetDropVisualizer labelFont "\"<default>\""
par Net1Test.visualizer.canvasVisualizer.packetDropVisualizer labelColor "\"black\""
par Net1Test.visualizer.canvasVisualizer.packetDropVisualizer fadeOutMode "\"realTime\""
attr enum realTime,animationTime,simulationTime
par Net1Test.visualizer.canvasVisualizer.packetDropVisualizer fadeOutTime 1s
attr unit s
par Net1Test.visualizer.canvasVisualizer.packetDropVisualizer fadeOutAnimationSpeed 0
par Net1Test.visualizer.canvasVisualizer.packetDropVisualizer zIndex 10
par Net1Test.visualizer.canvasVisualizer.packetDropVisualizer dx 32
par Net1Test.visualizer.canvasVisualizer.packetDropVisualizer dy 64
par Net1Test.visualizer.canvasVisualizer.packetFlowVisualizer typename "\"inet.visualizer.canvas.flow.PacketFlowCanvasVisualizer\""
par Net1Test.visualizer.canvasVisualizer.packetFlowVisualizer visualizationTargetModule "\"^.^.^\""
par Net1Test.visualizer.canvasVisualizer.packetFlowVisualizer visualizationSubjectModule "\"^.^.^\""
par Net1Test.visualizer.canvasVisualizer.packetFlowVisualizer tags "\"\""
par Net1Test.visualizer.canvasVisualizer.packetFlowVisualizer displayRoutes false
par Net1Test.visualizer.canvasVisualizer.packetFlowVisualizer startPathSignal "\"packetFlowStarted\""
par Net1Test.visualizer.canvasVisualizer.packetFlowVisualizer extendPathSignal "\"packetReceivedFromLower\""
par Net1Test.visualizer.canvasVisualizer.packetFlowVisualizer endPathSignal "\"packetFlowEnded\""
par Net1Test.visualizer.canvasVisualizer.packetFlowVisualizer nodeFilter "\"*\""
attr mutable ""
par Net1Test.visualizer.canvasVisualizer.packetFlowVisualizer packetFilter "(omnetpp::cValueHolder)holder: \"*\""
attr mutable ""
par Net1Test.visualizer.canvasVisualizer.packetFlowVisualizer lineColor "\"dark\""
attr enum light,dark
par Net1Test.visualizer.canvasVisualizer.packetFlowVisualizer lineStyle "\"dashed\""
par Net1Test.visualizer.canvasVisualizer.packetFlowVisualizer lineWidth 3
par Net1Test.visualizer.canvasVisualizer.packetFlowVisualizer lineSmooth false
par Net1Test.visualizer.canvasVisualizer.packetFlowVisualizer lineShift 16
par Net1Test.visualizer.canvasVisualizer.packetFlowVisualizer lineShiftMode "\"normal\""
par Net1Test.visualizer.canvasVisualizer.packetFlowVisualizer lineContactSpacing 3
par Net1Test.visualizer.canvasVisualizer.packetFlowVisualizer lineContactMode "\"rectangular\""
attr enum circular,rectangular
par Net1Test.visualizer.canvasVisualizer.packetFlowVisualizer labelFormat "\"%L %p pk (%l)\""
par Net1Test.visualizer.canvasVisualizer.packetFlowVisualizer labelFont "\"<default>, 8px\""
par Net1Test.visualizer.canvasVisualizer.packetFlowVisualizer labelColor "\"\""
par Net1Test.visualizer.canvasVisualizer.packetFlowVisualizer fadeOutMode "\"realTime\""
attr enum realTime,animationTime,simulationTime
par Net1Test.visualizer.canvasVisualizer.packetFlowVisualizer fadeOutTime 0s
attr unit s
par Net1Test.visualizer.canvasVisualizer.packetFlowVisualizer fadeOutAnimationSpeed 0
par Net1Test.visualizer.canvasVisualizer.packetFlowVisualizer zIndex 4
par Net1Test.visualizer.canvasVisualizer.queueVisualizer typename "\"inet.visualizer.canvas.common.QueueCanvasVisualizer\""
par Net1Test.visualizer.canvasVisualizer.queueVisualizer visualizationTargetModule "\"^.^.^\""
par Net1Test.visualizer.canvasVisualizer.queueVisualizer visualizationSubjectModule "\"^.^.^\""
par Net1Test.visualizer.canvasVisualizer.queueVisualizer tags "\"\""
par Net1Test.visualizer.canvasVisualizer.queueVisualizer networkNodeVisualizerModule "\"^.networkNodeVisualizer\""
par Net1Test.visualizer.canvasVisualizer.queueVisualizer displayQueues false
par Net1Test.visualizer.canvasVisualizer.queueVisualizer queueFilter "\"**\""
par Net1Test.visualizer.canvasVisualizer.queueVisualizer color "\"blue\""
par Net1Test.visualizer.canvasVisualizer.queueVisualizer width 8
par Net1Test.visualizer.canvasVisualizer.queueVisualizer height 24
par Net1Test.visualizer.canvasVisualizer.queueVisualizer spacing 2
par Net1Test.visualizer.canvasVisualizer.queueVisualizer placementHint "\"right\""
par Net1Test.visualizer.canvasVisualizer.queueVisualizer placementPriority 0
par Net1Test.visualizer.canvasVisualizer.queueVisualizer zIndex 10
par Net1Test.visualizer.canvasVisualizer.gateScheduleVisualizer typename "\"inet.visualizer.canvas.common.GateScheduleCanvasVisualizer\""
par Net1Test.visualizer.canvasVisualizer.gateScheduleVisualizer visualizationTargetModule "\"^.^.^\""
par Net1Test.visualizer.canvasVisualizer.gateScheduleVisualizer visualizationSubjectModule "\"^.^.^\""
par Net1Test.visualizer.canvasVisualizer.gateScheduleVisualizer tags "\"\""
par Net1Test.visualizer.canvasVisualizer.gateScheduleVisualizer networkNodeVisualizerModule "\"^.networkNodeVisualizer\""
par Net1Test.visualizer.canvasVisualizer.gateScheduleVisualizer displayGateSchedules false
par Net1Test.visualizer.canvasVisualizer.gateScheduleVisualizer labelFormat "\"%i %D\""
par Net1Test.visualizer.canvasVisualizer.gateScheduleVisualizer gateFilter "\"**\""
par Net1Test.visualizer.canvasVisualizer.gateScheduleVisualizer width 100
par Net1Test.visualizer.canvasVisualizer.gateScheduleVisualizer height 8
par Net1Test.visualizer.canvasVisualizer.gateScheduleVisualizer spacing 2
par Net1Test.visualizer.canvasVisualizer.gateScheduleVisualizer placementHint "\"right\""
par Net1Test.visualizer.canvasVisualizer.gateScheduleVisualizer placementPriority 0
par Net1Test.visualizer.canvasVisualizer.gateScheduleVisualizer displayDuration 0s
attr mutable ""
attr unit s
par Net1Test.visualizer.canvasVisualizer.gateScheduleVisualizer currentTimePosition 50
par Net1Test.visualizer.canvasVisualizer.gateScheduleVisualizer zIndex 10
par Net1Test.visualizer.canvasVisualizer.radioVisualizer typename "\"inet.visualizer.canvas.physicallayer.RadioCanvasVisualizer\""
par Net1Test.visualizer.canvasVisualizer.radioVisualizer visualizationTargetModule "\"^.^.^\""
par Net1Test.visualizer.canvasVisualizer.radioVisualizer visualizationSubjectModule "\"^.^.^\""
par Net1Test.visualizer.canvasVisualizer.radioVisualizer tags "\"\""
par Net1Test.visualizer.canvasVisualizer.radioVisualizer networkNodeVisualizerModule "\"^.networkNodeVisualizer\""
par Net1Test.visualizer.canvasVisualizer.radioVisualizer displayRadios false
par Net1Test.visualizer.canvasVisualizer.radioVisualizer displayRadioMode true
par Net1Test.visualizer.canvasVisualizer.radioVisualizer displayReceptionState true
par Net1Test.visualizer.canvasVisualizer.radioVisualizer displayTransmissionState true
par Net1Test.visualizer.canvasVisualizer.radioVisualizer displayAntennaLobes false
par Net1Test.visualizer.canvasVisualizer.radioVisualizer radioFilter "\"**\""
attr mutable ""
par Net1Test.visualizer.canvasVisualizer.radioVisualizer radioModeImages "\"block/process_vs block/timer_vs block/wrx_vs block/wtx_vs block/wrxtx_vs block/cogwheel_vs\""
par Net1Test.visualizer.canvasVisualizer.radioVisualizer receptionStateImages "\"- - misc/receiving misc/receiving\""
par Net1Test.visualizer.canvasVisualizer.radioVisualizer transmissionStateImages "\"- - misc/transmitting\""
par Net1Test.visualizer.canvasVisualizer.radioVisualizer width 16
par Net1Test.visualizer.canvasVisualizer.radioVisualizer height 16
par Net1Test.visualizer.canvasVisualizer.radioVisualizer placementHint "\"bottomRight\""
par Net1Test.visualizer.canvasVisualizer.radioVisualizer placementPriority 0
par Net1Test.visualizer.canvasVisualizer.radioVisualizer antennaLobeNormalize false
par Net1Test.visualizer.canvasVisualizer.radioVisualizer antennaLobeRelativeLabels false
par Net1Test.visualizer.canvasVisualizer.radioVisualizer antennaLobePlaneGlobal true
par Net1Test.visualizer.canvasVisualizer.radioVisualizer antennaLobePlane "\"view\""
attr enum view,xy,xz,yz
par Net1Test.visualizer.canvasVisualizer.radioVisualizer antennaLobeMode "\"logarithmic\""
attr enum logarithmic,linear
par Net1Test.visualizer.canvasVisualizer.radioVisualizer antennaLobeLogarithmicBase 10
par Net1Test.visualizer.canvasVisualizer.radioVisualizer antennaLobeLogarithmicScale 100
par Net1Test.visualizer.canvasVisualizer.radioVisualizer antennaLobeRadius 100
par Net1Test.visualizer.canvasVisualizer.radioVisualizer antennaLobeStep 10deg
attr unit deg
par Net1Test.visualizer.canvasVisualizer.radioVisualizer antennaLobeOpacity 0.25
par Net1Test.visualizer.canvasVisualizer.radioVisualizer antennaLobeLineSmooth true
par Net1Test.visualizer.canvasVisualizer.radioVisualizer antennaLobeLineColor "\"black\""
par Net1Test.visualizer.canvasVisualizer.radioVisualizer antennaLobeLineStyle "\"solid\""
par Net1Test.visualizer.canvasVisualizer.radioVisualizer antennaLobeLineWidth 1
par Net1Test.visualizer.canvasVisualizer.radioVisualizer antennaLobeFillColor "\"white\""
par Net1Test.visualizer.canvasVisualizer.radioVisualizer zIndex 10
par Net1Test.visualizer.canvasVisualizer.physicalLinkVisualizer typename "\"inet.visualizer.canvas.physicallayer.PhysicalLinkCanvasVisualizer\""
par Net1Test.visualizer.canvasVisualizer.physicalLinkVisualizer visualizationTargetModule "\"^.^.^\""
par Net1Test.visualizer.canvasVisualizer.physicalLinkVisualizer visualizationSubjectModule "\"^.^.^\""
par Net1Test.visualizer.canvasVisualizer.physicalLinkVisualizer tags "\"\""
par Net1Test.visualizer.canvasVisualizer.physicalLinkVisualizer displayLinks false
par Net1Test.visualizer.canvasVisualizer.physicalLinkVisualizer activityLevel "\"service\""
attr enum service,peer,protocol
par Net1Test.visualizer.canvasVisualizer.physicalLinkVisualizer nodeFilter "\"*\""
attr mutable ""
par Net1Test.visualizer.canvasVisualizer.physicalLinkVisualizer interfaceFilter "\"*\""
attr mutable ""
par Net1Test.visualizer.canvasVisualizer.physicalLinkVisualizer packetFilter "(omnetpp::cValueHolder)holder: \"*\""
attr mutable ""
par Net1Test.visualizer.canvasVisualizer.physicalLinkVisualizer lineColor "\"olive\""
par Net1Test.visualizer.canvasVisualizer.physicalLinkVisualizer lineStyle "\"dotted\""
par Net1Test.visualizer.canvasVisualizer.physicalLinkVisualizer lineWidth 3
par Net1Test.visualizer.canvasVisualizer.physicalLinkVisualizer lineShift 16
par Net1Test.visualizer.canvasVisualizer.physicalLinkVisualizer lineShiftMode "\"normal\""
par Net1Test.visualizer.canvasVisualizer.physicalLinkVisualizer lineContactSpacing 3
par Net1Test.visualizer.canvasVisualizer.physicalLinkVisualizer lineContactMode "\"rectangular\""
attr enum circular,rectangular
par Net1Test.visualizer.canvasVisualizer.physicalLinkVisualizer labelFormat "\"%n\""
par Net1Test.visualizer.canvasVisualizer.physicalLinkVisualizer labelFont "\"<default>, 8px\""
par Net1Test.visualizer.canvasVisualizer.physicalLinkVisualizer labelColor "\"olive\""
par Net1Test.visualizer.canvasVisualizer.physicalLinkVisualizer fadeOutMode "\"realTime\""
attr enum realTime,animationTime,simulationTime
par Net1Test.visualizer.canvasVisualizer.physicalLinkVisualizer fadeOutTime 1s
attr unit s
par Net1Test.visualizer.canvasVisualizer.physicalLinkVisualizer fadeOutAnimationSpeed 0
par Net1Test.visualizer.canvasVisualizer.physicalLinkVisualizer holdAnimationTime 0s
attr unit s
par Net1Test.visualizer.canvasVisualizer.physicalLinkVisualizer zIndex 1
par Net1Test.visualizer.canvasVisualizer.interfaceTableVisualizer typename "\"inet.visualizer.canvas.linklayer.InterfaceTableCanvasVisualizer\""
par Net1Test.visualizer.canvasVisualizer.interfaceTableVisualizer visualizationTargetModule "\"^.^.^\""
par Net1Test.visualizer.canvasVisualizer.interfaceTableVisualizer visualizationSubjectModule "\"^.^.^\""
par Net1Test.visualizer.canvasVisualizer.interfaceTableVisualizer tags "\"\""
par Net1Test.visualizer.canvasVisualizer.interfaceTableVisualizer networkNodeVisualizerModule "\"^.networkNodeVisualizer\""
par Net1Test.visualizer.canvasVisualizer.interfaceTableVisualizer displayInterfaceTables false
par Net1Test.visualizer.canvasVisualizer.interfaceTableVisualizer displayWiredInterfacesAtConnections true
par Net1Test.visualizer.canvasVisualizer.interfaceTableVisualizer displayBackground false
par Net1Test.visualizer.canvasVisualizer.interfaceTableVisualizer nodeFilter "\"*\""
attr mutable ""
par Net1Test.visualizer.canvasVisualizer.interfaceTableVisualizer interfaceFilter "\"not(lo*)\""
attr mutable ""
par Net1Test.visualizer.canvasVisualizer.interfaceTableVisualizer format "\"%N %\\\\%a%/%l\""
attr mutable ""
par Net1Test.visualizer.canvasVisualizer.interfaceTableVisualizer placementHint "\"top\""
par Net1Test.visualizer.canvasVisualizer.interfaceTableVisualizer placementPriority 0
par Net1Test.visualizer.canvasVisualizer.interfaceTableVisualizer font "\"<default>\""
par Net1Test.visualizer.canvasVisualizer.interfaceTableVisualizer textColor "\"#005030\""
par Net1Test.visualizer.canvasVisualizer.interfaceTableVisualizer backgroundColor "\"white\""
par Net1Test.visualizer.canvasVisualizer.interfaceTableVisualizer opacity 1
par Net1Test.visualizer.canvasVisualizer.interfaceTableVisualizer zIndex 10
par Net1Test.visualizer.canvasVisualizer.dataLinkVisualizer typename "\"inet.visualizer.canvas.linklayer.DataLinkCanvasVisualizer\""
par Net1Test.visualizer.canvasVisualizer.dataLinkVisualizer visualizationTargetModule "\"^.^.^\""
par Net1Test.visualizer.canvasVisualizer.dataLinkVisualizer visualizationSubjectModule "\"^.^.^\""
par Net1Test.visualizer.canvasVisualizer.dataLinkVisualizer tags "\"\""
par Net1Test.visualizer.canvasVisualizer.dataLinkVisualizer displayLinks false
par Net1Test.visualizer.canvasVisualizer.dataLinkVisualizer activityLevel "\"service\""
attr enum service,peer,protocol
par Net1Test.visualizer.canvasVisualizer.dataLinkVisualizer nodeFilter "\"*\""
attr mutable ""
par Net1Test.visualizer.canvasVisualizer.dataLinkVisualizer interfaceFilter "\"*\""
attr mutable ""
par Net1Test.visualizer.canvasVisualizer.dataLinkVisualizer packetFilter "(omnetpp::cValueHolder)holder: \"*\""
attr mutable ""
par Net1Test.visualizer.canvasVisualizer.dataLinkVisualizer lineColor "\"darkcyan\""
par Net1Test.visualizer.canvasVisualizer.dataLinkVisualizer lineStyle "\"solid\""
par Net1Test.visualizer.canvasVisualizer.dataLinkVisualizer lineWidth 3
par Net1Test.visualizer.canvasVisualizer.dataLinkVisualizer lineShift 16
par Net1Test.visualizer.canvasVisualizer.dataLinkVisualizer lineShiftMode "\"normal\""
par Net1Test.visualizer.canvasVisualizer.dataLinkVisualizer lineContactSpacing 3
par Net1Test.visualizer.canvasVisualizer.dataLinkVisualizer lineContactMode "\"rectangular\""
attr enum circular,rectangular
par Net1Test.visualizer.canvasVisualizer.dataLinkVisualizer labelFormat "\"%n\""
par Net1Test.visualizer.canvasVisualizer.dataLinkVisualizer labelFont "\"<default>, 8px\""
par Net1Test.visualizer.canvasVisualizer.dataLinkVisualizer labelColor "\"darkcyan\""
par Net1Test.visualizer.canvasVisualizer.dataLinkVisualizer fadeOutMode "\"realTime\""
attr enum realTime,animationTime,simulationTime
par Net1Test.visualizer.canvasVisualizer.dataLinkVisualizer fadeOutTime 1s
attr unit s
par Net1Test.visualizer.canvasVisualizer.dataLinkVisualizer fadeOutAnimationSpeed 0
par Net1Test.visualizer.canvasVisualizer.dataLinkVisualizer holdAnimationTime 0s
attr unit s
par Net1Test.visualizer.canvasVisualizer.dataLinkVisualizer zIndex 2
par Net1Test.visualizer.canvasVisualizer.linkBreakVisualizer typename "\"inet.visualizer.canvas.linklayer.LinkBreakCanvasVisualizer\""
par Net1Test.visualizer.canvasVisualizer.linkBreakVisualizer visualizationTargetModule "\"^.^.^\""
par Net1Test.visualizer.canvasVisualizer.linkBreakVisualizer visualizationSubjectModule "\"^.^.^\""
par Net1Test.visualizer.canvasVisualizer.linkBreakVisualizer tags "\"\""
par Net1Test.visualizer.canvasVisualizer.linkBreakVisualizer displayLinkBreaks false
par Net1Test.visualizer.canvasVisualizer.linkBreakVisualizer nodeFilter "\"*\""
attr mutable ""
par Net1Test.visualizer.canvasVisualizer.linkBreakVisualizer interfaceFilter "\"*\""
attr mutable ""
par Net1Test.visualizer.canvasVisualizer.linkBreakVisualizer packetFilter "(omnetpp::cValueHolder)holder: \"*\""
attr mutable ""
par Net1Test.visualizer.canvasVisualizer.linkBreakVisualizer icon "\"status/stop\""
par Net1Test.visualizer.canvasVisualizer.linkBreakVisualizer iconTintAmount 0
par Net1Test.visualizer.canvasVisualizer.linkBreakVisualizer iconTintColor "\"\""
par Net1Test.visualizer.canvasVisualizer.linkBreakVisualizer fadeOutMode "\"realTime\""
attr enum realTime,animationTime,simulationTime
par Net1Test.visualizer.canvasVisualizer.linkBreakVisualizer fadeOutTime 1s
attr unit s
par Net1Test.visualizer.canvasVisualizer.linkBreakVisualizer fadeOutAnimationSpeed 0
par Net1Test.visualizer.canvasVisualizer.linkBreakVisualizer zIndex 2
par Net1Test.visualizer.canvasVisualizer.ieee80211Visualizer typename "\"inet.visualizer.canvas.linklayer.Ieee80211CanvasVisualizer\""
par Net1Test.visualizer.canvasVisualizer.ieee80211Visualizer visualizationTargetModule "\"^.^.^\""
par Net1Test.visualizer.canvasVisualizer.ieee80211Visualizer visualizationSubjectModule "\"^.^.^\""
par Net1Test.visualizer.canvasVisualizer.ieee80211Visualizer tags "\"\""
par Net1Test.visualizer.canvasVisualizer.ieee80211Visualizer networkNodeVisualizerModule "\"^.networkNodeVisualizer\""
par Net1Test.visualizer.canvasVisualizer.ieee80211Visualizer displayAssociations false
par Net1Test.visualizer.canvasVisualizer.ieee80211Visualizer nodeFilter "\"*\""
attr mutable ""
par Net1Test.visualizer.canvasVisualizer.ieee80211Visualizer interfaceFilter "\"*\""
attr mutable ""
par Net1Test.visualizer.canvasVisualizer.ieee80211Visualizer minPower -85dBm
attr unit dBm
par Net1Test.visualizer.canvasVisualizer.ieee80211Visualizer maxPower -50dBm
attr unit dBm
par Net1Test.visualizer.canvasVisualizer.ieee80211Visualizer icons "\"misc/signal_power_0 misc/signal_power_1 misc/signal_power_2 misc/signal_power_3\""
par Net1Test.visualizer.canvasVisualizer.ieee80211Visualizer iconColor "\"dark\""
attr enum light,dark
par Net1Test.visualizer.canvasVisualizer.ieee80211Visualizer labelFont "\"<default>\""
par Net1Test.visualizer.canvasVisualizer.ieee80211Visualizer labelColor "\"black\""
par Net1Test.visualizer.canvasVisualizer.ieee80211Visualizer placementHint "\"top\""
par Net1Test.visualizer.canvasVisualizer.ieee80211Visualizer placementPriority 0
par Net1Test.visualizer.canvasVisualizer.ieee80211Visualizer zIndex 2
par Net1Test.visualizer.canvasVisualizer.networkRouteVisualizer typename "\"inet.visualizer.canvas.networklayer.NetworkRouteCanvasVisualizer\""
par Net1Test.visualizer.canvasVisualizer.networkRouteVisualizer visualizationTargetModule "\"^.^.^\""
par Net1Test.visualizer.canvasVisualizer.networkRouteVisualizer visualizationSubjectModule "\"^.^.^\""
par Net1Test.visualizer.canvasVisualizer.networkRouteVisualizer tags "\"\""
par Net1Test.visualizer.canvasVisualizer.networkRouteVisualizer displayRoutes true
par Net1Test.visualizer.canvasVisualizer.networkRouteVisualizer startPathSignal "\"packetReceivedFromUpper\""
par Net1Test.visualizer.canvasVisualizer.networkRouteVisualizer extendPathSignal "\"packetReceivedFromLower\""
par Net1Test.visualizer.canvasVisualizer.networkRouteVisualizer endPathSignal "\"packetSentToUpper\""
par Net1Test.visualizer.canvasVisualizer.networkRouteVisualizer nodeFilter "\"*\""
attr mutable ""
par Net1Test.visualizer.canvasVisualizer.networkRouteVisualizer packetFilter "(omnetpp::cValueHolder)holder: \"*\""
attr mutable ""
par Net1Test.visualizer.canvasVisualizer.networkRouteVisualizer lineColor "\"dark\""
attr enum light,dark
par Net1Test.visualizer.canvasVisualizer.networkRouteVisualizer lineStyle "\"solid\""
par Net1Test.visualizer.canvasVisualizer.networkRouteVisualizer lineWidth 3
par Net1Test.visualizer.canvasVisualizer.networkRouteVisualizer lineSmooth false
par Net1Test.visualizer.canvasVisualizer.networkRouteVisualizer lineShift 16
par Net1Test.visualizer.canvasVisualizer.networkRouteVisualizer lineShiftMode "\"normal\""
par Net1Test.visualizer.canvasVisualizer.networkRouteVisualizer lineContactSpacing 3
par Net1Test.visualizer.canvasVisualizer.networkRouteVisualizer lineContactMode "\"rectangular\""
attr enum circular,rectangular
par Net1Test.visualizer.canvasVisualizer.networkRouteVisualizer labelFormat "\"%n\""
par Net1Test.visualizer.canvasVisualizer.networkRouteVisualizer labelFont "\"<default>, 8px\""
par Net1Test.visualizer.canvasVisualizer.networkRouteVisualizer labelColor "\"\""
par Net1Test.visualizer.canvasVisualizer.networkRouteVisualizer fadeOutMode "\"realTime\""
attr enum realTime,animationTime,simulationTime
par Net1Test.visualizer.canvasVisualizer.networkRouteVisualizer fadeOutTime 1s
attr unit s
par Net1Test.visualizer.canvasVisualizer.networkRouteVisualizer fadeOutAnimationSpeed 0
par Net1Test.visualizer.canvasVisualizer.networkRouteVisualizer zIndex 3
par Net1Test.visualizer.canvasVisualizer.routingTableVisualizer typename "\"inet.visualizer.canvas.networklayer.RoutingTableCanvasVisualizer\""
par Net1Test.visualizer.canvasVisualizer.routingTableVisualizer visualizationTargetModule "\"^.^.^\""
par Net1Test.visualizer.canvasVisualizer.routingTableVisualizer visualizationSubjectModule "\"^.^.^\""
par Net1Test.visualizer.canvasVisualizer.routingTableVisualizer tags "\"\""
par Net1Test.visualizer.canvasVisualizer.routingTableVisualizer displayRoutingTables false
par Net1Test.visualizer.canvasVisualizer.routingTableVisualizer displayRoutesIndividually true
par Net1Test.visualizer.canvasVisualizer.routingTableVisualizer displayLabels true
par Net1Test.visualizer.canvasVisualizer.routingTableVisualizer destinationFilter "\"*\""
attr mutable ""
par Net1Test.visualizer.canvasVisualizer.routingTableVisualizer nodeFilter "\"*\""
attr mutable ""
par Net1Test.visualizer.canvasVisualizer.routingTableVisualizer lineColor "\"black\""
par Net1Test.visualizer.canvasVisualizer.routingTableVisualizer lineStyle "\"solid\""
par Net1Test.visualizer.canvasVisualizer.routingTableVisualizer lineWidth 2
par Net1Test.visualizer.canvasVisualizer.routingTableVisualizer lineShift 16
par Net1Test.visualizer.canvasVisualizer.routingTableVisualizer lineShiftMode "\"normal\""
par Net1Test.visualizer.canvasVisualizer.routingTableVisualizer lineContactSpacing 3
par Net1Test.visualizer.canvasVisualizer.routingTableVisualizer lineContactMode "\"rectangular\""
attr enum circular,rectangular
par Net1Test.visualizer.canvasVisualizer.routingTableVisualizer labelFormat "\"%d/%m -> %g (%n)\""
attr mutable ""
par Net1Test.visualizer.canvasVisualizer.routingTableVisualizer labelFont "\"<default>, 8px\""
par Net1Test.visualizer.canvasVisualizer.routingTableVisualizer labelColor "\"black\""
par Net1Test.visualizer.canvasVisualizer.routingTableVisualizer zIndex 0
par Net1Test.visualizer.canvasVisualizer.transportRouteVisualizer typename "\"inet.visualizer.canvas.transportlayer.TransportRouteCanvasVisualizer\""
par Net1Test.visualizer.canvasVisualizer.transportRouteVisualizer visualizationTargetModule "\"^.^.^\""
par Net1Test.visualizer.canvasVisualizer.transportRouteVisualizer visualizationSubjectModule "\"^.^.^\""
par Net1Test.visualizer.canvasVisualizer.transportRouteVisualizer tags "\"\""
par Net1Test.visualizer.canvasVisualizer.transportRouteVisualizer displayRoutes false
par Net1Test.visualizer.canvasVisualizer.transportRouteVisualizer startPathSignal "\"packetReceivedFromUpper\""
par Net1Test.visualizer.canvasVisualizer.transportRouteVisualizer extendPathSignal "\"packetReceivedFromLower\""
par Net1Test.visualizer.canvasVisualizer.transportRouteVisualizer endPathSignal "\"packetSentToUpper\""
par Net1Test.visualizer.canvasVisualizer.transportRouteVisualizer nodeFilter "\"*\""
attr mutable ""
par Net1Test.visualizer.canvasVisualizer.transportRouteVisualizer packetFilter "(omnetpp::cValueHolder)holder: \"*\""
attr mutable ""
par Net1Test.visualizer.canvasVisualizer.transportRouteVisualizer lineColor "\"dark\""
attr enum light,dark
par Net1Test.visualizer.canvasVisualizer.transportRouteVisualizer lineStyle "\"solid\""
par Net1Test.visualizer.canvasVisualizer.transportRouteVisualizer lineWidth 3
par Net1Test.visualizer.canvasVisualizer.transportRouteVisualizer lineSmooth false
par Net1Test.visualizer.canvasVisualizer.transportRouteVisualizer lineShift 16
par Net1Test.visualizer.canvasVisualizer.transportRouteVisualizer lineShiftMode "\"normal\""
par Net1Test.visualizer.canvasVisualizer.transportRouteVisualizer lineContactSpacing 3
par Net1Test.visualizer.canvasVisualizer.transportRouteVisualizer lineContactMode "\"rectangular\""
attr enum circular,rectangular
par Net1Test.visualizer.canvasVisualizer.transportRouteVisualizer labelFormat "\"%n\""
par Net1Test.visualizer.canvasVisualizer.transportRouteVisualizer labelFont "\"<default>, 8px\""
par Net1Test.visualizer.canvasVisualizer.transportRouteVisualizer labelColor "\"\""
par Net1Test.visualizer.canvasVisualizer.transportRouteVisualizer fadeOutMode "\"realTime\""
attr enum realTime,animationTime,simulationTime
par Net1Test.visualizer.canvasVisualizer.transportRouteVisualizer fadeOutTime 1s
attr unit s
par Net1Test.visualizer.canvasVisualizer.transportRouteVisualizer fadeOutAnimationSpeed 0
par Net1Test.visualizer.canvasVisualizer.transportRouteVisualizer zIndex 4
par Net1Test.visualizer.canvasVisualizer.transportConnectionVisualizer typename "\"inet.visualizer.canvas.transportlayer.TransportConnectionCanvasVisualizer\""
par Net1Test.visualizer.canvasVisualizer.transportConnectionVisualizer visualizationTargetModule "\"^.^.^\""
par Net1Test.visualizer.canvasVisualizer.transportConnectionVisualizer visualizationSubjectModule "\"^.^.^\""
par Net1Test.visualizer.canvasVisualizer.transportConnectionVisualizer tags "\"\""
par Net1Test.visualizer.canvasVisualizer.transportConnectionVisualizer networkNodeVisualizerModule "\"^.networkNodeVisualizer\""
par Net1Test.visualizer.canvasVisualizer.transportConnectionVisualizer displayTransportConnections false
par Net1Test.visualizer.canvasVisualizer.transportConnectionVisualizer sourceNodeFilter "\"*\""
attr mutable ""
par Net1Test.visualizer.canvasVisualizer.transportConnectionVisualizer sourcePortFilter "\"*\""
attr mutable ""
par Net1Test.visualizer.canvasVisualizer.transportConnectionVisualizer destinationNodeFilter "\"*\""
attr mutable ""
par Net1Test.visualizer.canvasVisualizer.transportConnectionVisualizer destinationPortFilter "\"*\""
attr mutable ""
par Net1Test.visualizer.canvasVisualizer.transportConnectionVisualizer icon "\"misc/marker_s\""
par Net1Test.visualizer.canvasVisualizer.transportConnectionVisualizer iconColor "\"dark\""
attr enum light,dark
par Net1Test.visualizer.canvasVisualizer.transportConnectionVisualizer labelFont "\"<default>\""
par Net1Test.visualizer.canvasVisualizer.transportConnectionVisualizer labelColor "\"black\""
par Net1Test.visualizer.canvasVisualizer.transportConnectionVisualizer placementHint "\"top\""
par Net1Test.visualizer.canvasVisualizer.transportConnectionVisualizer placementPriority 0
par Net1Test.visualizer.canvasVisualizer.transportConnectionVisualizer zIndex 4
par Net1Test.visualizer.canvasVisualizer.failureProtectionConfigurationVisualizer typename "\"inet.visualizer.canvas.configurator.FailureProtectionConfigurationCanvasVisualizer\""
par Net1Test.visualizer.canvasVisualizer.failureProtectionConfigurationVisualizer visualizationTargetModule "\"^.^.^\""
par Net1Test.visualizer.canvasVisualizer.failureProtectionConfigurationVisualizer visualizationSubjectModule "\"^.^.^\""
par Net1Test.visualizer.canvasVisualizer.failureProtectionConfigurationVisualizer tags "\"\""
par Net1Test.visualizer.canvasVisualizer.failureProtectionConfigurationVisualizer displayTrees false
par Net1Test.visualizer.canvasVisualizer.failureProtectionConfigurationVisualizer lineColor "\"dark\""
attr enum light,dark
par Net1Test.visualizer.canvasVisualizer.failureProtectionConfigurationVisualizer lineStyle "\"solid\""
par Net1Test.visualizer.canvasVisualizer.failureProtectionConfigurationVisualizer lineWidth 3
par Net1Test.visualizer.canvasVisualizer.failureProtectionConfigurationVisualizer lineSmooth false
par Net1Test.visualizer.canvasVisualizer.failureProtectionConfigurationVisualizer lineShift 16
par Net1Test.visualizer.canvasVisualizer.failureProtectionConfigurationVisualizer lineShiftMode "\"normal\""
par Net1Test.visualizer.canvasVisualizer.failureProtectionConfigurationVisualizer lineContactSpacing 3
par Net1Test.visualizer.canvasVisualizer.failureProtectionConfigurationVisualizer lineContactMode "\"rectangular\""
attr enum circular,rectangular
par Net1Test.visualizer.canvasVisualizer.failureProtectionConfigurationVisualizer failureProtectionConfiguratorModule "\"failureProtectionConfigurator\""
par Net1Test.visualizer.canvasVisualizer.failureProtectionConfigurationVisualizer streamFilter "\"*\""
par Net1Test.visualizer.canvasVisualizer.failureProtectionConfigurationVisualizer zIndex 3
par Net1Test.visualizer.canvasVisualizer.streamRedundancyConfigurationVisualizer typename "\"inet.visualizer.canvas.configurator.StreamRedundancyConfigurationCanvasVisualizer\""
par Net1Test.visualizer.canvasVisualizer.streamRedundancyConfigurationVisualizer visualizationTargetModule "\"^.^.^\""
par Net1Test.visualizer.canvasVisualizer.streamRedundancyConfigurationVisualizer visualizationSubjectModule "\"^.^.^\""
par Net1Test.visualizer.canvasVisualizer.streamRedundancyConfigurationVisualizer tags "\"\""
par Net1Test.visualizer.canvasVisualizer.streamRedundancyConfigurationVisualizer displayTrees false
par Net1Test.visualizer.canvasVisualizer.streamRedundancyConfigurationVisualizer lineColor "\"dark\""
attr enum light,dark
par Net1Test.visualizer.canvasVisualizer.streamRedundancyConfigurationVisualizer lineStyle "\"solid\""
par Net1Test.visualizer.canvasVisualizer.streamRedundancyConfigurationVisualizer lineWidth 3
par Net1Test.visualizer.canvasVisualizer.streamRedundancyConfigurationVisualizer lineSmooth false
par Net1Test.visualizer.canvasVisualizer.streamRedundancyConfigurationVisualizer lineShift 16
par Net1Test.visualizer.canvasVisualizer.streamRedundancyConfigurationVisualizer lineShiftMode "\"normal\""
par Net1Test.visualizer.canvasVisualizer.streamRedundancyConfigurationVisualizer lineContactSpacing 3
par Net1Test.visualizer.canvasVisualizer.streamRedundancyConfigurationVisualizer lineContactMode "\"rectangular\""
attr enum circular,rectangular
par Net1Test.visualizer.canvasVisualizer.streamRedundancyConfigurationVisualizer streamRedundancyConfiguratorModule "\"streamRedundancyConfigurator\""
par Net1Test.visualizer.canvasVisualizer.streamRedundancyConfigurationVisualizer streamFilter "\"*\""
par Net1Test.visualizer.canvasVisualizer.streamRedundancyConfigurationVisualizer zIndex 3
par Net1Test.visualizer.canvasVisualizer typename "\"inet.visualizer.canvas.integrated.IntegratedCanvasVisualizer\""
par Net1Test.visualizer.osgVisualizer.sceneVisualizer typename "\"inet.visualizer.osg.scene.SceneOsgVisualizer\""
par Net1Test.visualizer.osgVisualizer.sceneVisualizer visualizationTargetModule "\"^.^.^\""
par Net1Test.visualizer.osgVisualizer.sceneVisualizer visualizationSubjectModule "\"^.^.^\""
par Net1Test.visualizer.osgVisualizer.sceneVisualizer tags "\"\""
par Net1Test.visualizer.osgVisualizer.sceneVisualizer physicalEnvironmentModule "\"physicalEnvironment\""
par Net1Test.visualizer.osgVisualizer.sceneVisualizer networkNodeVisualizerModule "\"^.networkNodeVisualizer\""
par Net1Test.visualizer.osgVisualizer.sceneVisualizer axisLength 6200m
attr mutable ""
attr unit m
par Net1Test.visualizer.osgVisualizer.sceneVisualizer animationSpeed 0
par Net1Test.visualizer.osgVisualizer.sceneVisualizer sceneMinX -1000m
attr unit m
par Net1Test.visualizer.osgVisualizer.sceneVisualizer sceneMinY -1000m
attr unit m
par Net1Test.visualizer.osgVisualizer.sceneVisualizer sceneMinZ 100m
attr unit m
par Net1Test.visualizer.osgVisualizer.sceneVisualizer sceneMaxX 6100m
attr unit m
par Net1Test.visualizer.osgVisualizer.sceneVisualizer sceneMaxY 6100m
attr unit m
par Net1Test.visualizer.osgVisualizer.sceneVisualizer sceneMaxZ 1000m
attr unit m
par Net1Test.visualizer.osgVisualizer.sceneVisualizer cameraManipulator "\"auto\""
attr enum auto,trackball,overview,terrain,earth
par Net1Test.visualizer.osgVisualizer.sceneVisualizer cameraDistanceFactor 5
par Net1Test.visualizer.osgVisualizer.sceneVisualizer zNear 1m
attr unit m
par Net1Test.visualizer.osgVisualizer.sceneVisualizer zFar 100000m
attr unit m
par Net1Test.visualizer.osgVisualizer.sceneVisualizer fieldOfView 30deg
attr unit deg
par Net1Test.visualizer.osgVisualizer.sceneVisualizer clearColor "\"skyblue\""
par Net1Test.visualizer.osgVisualizer.sceneVisualizer displayScene true
par Net1Test.visualizer.osgVisualizer.sceneVisualizer sceneColor "\"#A0E0A0\""
par Net1Test.visualizer.osgVisualizer.sceneVisualizer sceneOpacity 1
par Net1Test.visualizer.osgVisualizer.sceneVisualizer sceneImage "\"showcases/desert\""
par Net1Test.visualizer.osgVisualizer.sceneVisualizer sceneImageSize 6000m
attr unit m
par Net1Test.visualizer.osgVisualizer.sceneVisualizer sceneShading true
par Net1Test.visualizer.osgVisualizer.physicalEnvironmentVisualizer typename "\"inet.visualizer.osg.environment.PhysicalEnvironmentOsgVisualizer\""
par Net1Test.visualizer.osgVisualizer.physicalEnvironmentVisualizer visualizationTargetModule "\"^.^.^\""
par Net1Test.visualizer.osgVisualizer.physicalEnvironmentVisualizer visualizationSubjectModule "\"^.^.^\""
par Net1Test.visualizer.osgVisualizer.physicalEnvironmentVisualizer tags "\"\""
par Net1Test.visualizer.osgVisualizer.physicalEnvironmentVisualizer physicalEnvironmentModule "\"physicalEnvironment\""
par Net1Test.visualizer.osgVisualizer.physicalEnvironmentVisualizer displayObjects true
par Net1Test.visualizer.osgVisualizer.physicalEnvironmentVisualizer enableObjectOpacity true
par Net1Test.visualizer.osgVisualizer.networkNodeVisualizer typename "\"inet.visualizer.osg.scene.NetworkNodeOsgVisualizer\""
par Net1Test.visualizer.osgVisualizer.networkNodeVisualizer visualizationTargetModule "\"^.^.^\""
par Net1Test.visualizer.osgVisualizer.networkNodeVisualizer visualizationSubjectModule "\"^.^.^\""
par Net1Test.visualizer.osgVisualizer.networkNodeVisualizer tags "\"\""
par Net1Test.visualizer.osgVisualizer.networkNodeVisualizer nodeFilter "\"*\""
attr mutable ""
par Net1Test.visualizer.osgVisualizer.networkNodeVisualizer annotationSpacing 4
par Net1Test.visualizer.osgVisualizer.networkNodeVisualizer placementPenalty 10
par Net1Test.visualizer.osgVisualizer.networkNodeVisualizer displayModuleName true
par Net1Test.visualizer.osgVisualizer.networkConnectionVisualizer typename "\"inet.visualizer.osg.scene.NetworkConnectionOsgVisualizer\""
par Net1Test.visualizer.osgVisualizer.networkConnectionVisualizer visualizationTargetModule "\"^.^.^\""
par Net1Test.visualizer.osgVisualizer.networkConnectionVisualizer visualizationSubjectModule "\"^.^.^\""
par Net1Test.visualizer.osgVisualizer.networkConnectionVisualizer tags "\"\""
par Net1Test.visualizer.osgVisualizer.networkConnectionVisualizer displayNetworkConnections true
par Net1Test.visualizer.osgVisualizer.networkConnectionVisualizer nodeFilter "\"*\""
attr mutable ""
par Net1Test.visualizer.osgVisualizer.networkConnectionVisualizer lineColor "\"black\""
par Net1Test.visualizer.osgVisualizer.networkConnectionVisualizer lineStyle "\"solid\""
par Net1Test.visualizer.osgVisualizer.networkConnectionVisualizer lineWidth 1
par Net1Test.visualizer.osgVisualizer.mobilityVisualizer typename "\"inet.visualizer.osg.mobility.MobilityOsgVisualizer\""
par Net1Test.visualizer.osgVisualizer.mobilityVisualizer visualizationTargetModule "\"^.^.^\""
par Net1Test.visualizer.osgVisualizer.mobilityVisualizer visualizationSubjectModule "\"^.^.^\""
par Net1Test.visualizer.osgVisualizer.mobilityVisualizer tags "\"\""
par Net1Test.visualizer.osgVisualizer.mobilityVisualizer networkNodeVisualizerModule "\"^.networkNodeVisualizer\""
par Net1Test.visualizer.osgVisualizer.mobilityVisualizer displayMobility true
par Net1Test.visualizer.osgVisualizer.mobilityVisualizer animationSpeed 0
par Net1Test.visualizer.osgVisualizer.mobilityVisualizer moduleFilter "\"**.mobility\""
attr mutable ""
par Net1Test.visualizer.osgVisualizer.mobilityVisualizer displayPositions false
par Net1Test.visualizer.osgVisualizer.mobilityVisualizer positionCircleRadius 4
par Net1Test.visualizer.osgVisualizer.mobilityVisualizer positionCircleLineWidth 1
par Net1Test.visualizer.osgVisualizer.mobilityVisualizer positionCircleLineColor "\"dark\""
attr enum light,dark
par Net1Test.visualizer.osgVisualizer.mobilityVisualizer positionCircleFillColor "\"dark\""
attr enum light,dark
par Net1Test.visualizer.osgVisualizer.mobilityVisualizer displayOrientations false
par Net1Test.visualizer.osgVisualizer.mobilityVisualizer orientationPieRadius 32
par Net1Test.visualizer.osgVisualizer.mobilityVisualizer orientationPieSize 0.2
par Net1Test.visualizer.osgVisualizer.mobilityVisualizer orientationPieOpacity 0.25
par Net1Test.visualizer.osgVisualizer.mobilityVisualizer orientationLineColor "\"black\""
par Net1Test.visualizer.osgVisualizer.mobilityVisualizer orientationLineStyle "\"solid\""
par Net1Test.visualizer.osgVisualizer.mobilityVisualizer orientationLineWidth 1
par Net1Test.visualizer.osgVisualizer.mobilityVisualizer orientationFillColor "\"blue\""
par Net1Test.visualizer.osgVisualizer.mobilityVisualizer displayVelocities false
par Net1Test.visualizer.osgVisualizer.mobilityVisualizer velocityArrowScale 1
par Net1Test.visualizer.osgVisualizer.mobilityVisualizer velocityLineColor "\"black\""
par Net1Test.visualizer.osgVisualizer.mobilityVisualizer velocityLineStyle "\"solid\""
par Net1Test.visualizer.osgVisualizer.mobilityVisualizer velocityLineWidth 1
par Net1Test.visualizer.osgVisualizer.mobilityVisualizer displayMovementTrails false
par Net1Test.visualizer.osgVisualizer.mobilityVisualizer movementTrailLineColor "\"dark\""
attr enum light,dark
par Net1Test.visualizer.osgVisualizer.mobilityVisualizer movementTrailLineStyle "\"solid\""
par Net1Test.visualizer.osgVisualizer.mobilityVisualizer movementTrailLineWidth 1
par Net1Test.visualizer.osgVisualizer.mobilityVisualizer trailLength 100
par Net1Test.visualizer.osgVisualizer.statisticVisualizer typename "\"inet.visualizer.osg.common.StatisticOsgVisualizer\""
par Net1Test.visualizer.osgVisualizer.statisticVisualizer visualizationTargetModule "\"^.^.^\""
par Net1Test.visualizer.osgVisualizer.statisticVisualizer visualizationSubjectModule "\"^.^.^\""
par Net1Test.visualizer.osgVisualizer.statisticVisualizer tags "\"\""
par Net1Test.visualizer.osgVisualizer.statisticVisualizer networkNodeVisualizerModule "\"^.networkNodeVisualizer\""
par Net1Test.visualizer.osgVisualizer.statisticVisualizer displayStatistics true
par Net1Test.visualizer.osgVisualizer.statisticVisualizer signalName "\"\""
par Net1Test.visualizer.osgVisualizer.statisticVisualizer statisticName "\"\""
par Net1Test.visualizer.osgVisualizer.statisticVisualizer statisticUnit "\"\""
par Net1Test.visualizer.osgVisualizer.statisticVisualizer statisticExpression "\"\""
par Net1Test.visualizer.osgVisualizer.statisticVisualizer sourceFilter "\"**\""
attr mutable ""
par Net1Test.visualizer.osgVisualizer.statisticVisualizer format "\"%n: %v %u\""
attr mutable ""
par Net1Test.visualizer.osgVisualizer.statisticVisualizer unit "\"\""
par Net1Test.visualizer.osgVisualizer.statisticVisualizer font "\"<default>\""
par Net1Test.visualizer.osgVisualizer.statisticVisualizer textColor "\"black\""
par Net1Test.visualizer.osgVisualizer.statisticVisualizer backgroundColor "\"white\""
par Net1Test.visualizer.osgVisualizer.statisticVisualizer opacity 1
par Net1Test.visualizer.osgVisualizer.statisticVisualizer placementHint "\"top\""
par Net1Test.visualizer.osgVisualizer.statisticVisualizer placementPriority 0
par Net1Test.visualizer.osgVisualizer.infoVisualizer typename "\"inet.visualizer.osg.common.InfoOsgVisualizer\""
par Net1Test.visualizer.osgVisualizer.infoVisualizer visualizationTargetModule "\"^.^.^\""
par Net1Test.visualizer.osgVisualizer.infoVisualizer visualizationSubjectModule "\"^.^.^\""
par Net1Test.visualizer.osgVisualizer.infoVisualizer tags "\"\""
par Net1Test.visualizer.osgVisualizer.infoVisualizer networkNodeVisualizerModule "\"^.networkNodeVisualizer\""
par Net1Test.visualizer.osgVisualizer.infoVisualizer displayInfos true
par Net1Test.visualizer.osgVisualizer.infoVisualizer modules "\"*.*.app[0]\""
attr mutable ""
par Net1Test.visualizer.osgVisualizer.infoVisualizer format "\"%t\""
attr mutable ""
par Net1Test.visualizer.osgVisualizer.infoVisualizer font "\"<default>\""
par Net1Test.visualizer.osgVisualizer.infoVisualizer textColor "\"black\""
par Net1Test.visualizer.osgVisualizer.infoVisualizer backgroundColor "\"white\""
par Net1Test.visualizer.osgVisualizer.infoVisualizer opacity 1
par Net1Test.visualizer.osgVisualizer.infoVisualizer placementHint "\"topCenter\""
par Net1Test.visualizer.osgVisualizer.infoVisualizer placementPriority 0
par Net1Test.visualizer.osgVisualizer.energyStorageVisualizer typename "\"inet.visualizer.osg.power.EnergyStorageOsgVisualizer\""
par Net1Test.visualizer.osgVisualizer.energyStorageVisualizer visualizationTargetModule "\"^.^.^\""
par Net1Test.visualizer.osgVisualizer.energyStorageVisualizer visualizationSubjectModule "\"^.^.^\""
par Net1Test.visualizer.osgVisualizer.energyStorageVisualizer tags "\"\""
par Net1Test.visualizer.osgVisualizer.energyStorageVisualizer networkNodeVisualizerModule "\"^.networkNodeVisualizer\""
par Net1Test.visualizer.osgVisualizer.energyStorageVisualizer displayEnergyStorages false
par Net1Test.visualizer.osgVisualizer.energyStorageVisualizer energyStorageFilter "\"**\""
par Net1Test.visualizer.osgVisualizer.energyStorageVisualizer color "\"green\""
par Net1Test.visualizer.osgVisualizer.energyStorageVisualizer width 8
par Net1Test.visualizer.osgVisualizer.energyStorageVisualizer height 24
par Net1Test.visualizer.osgVisualizer.energyStorageVisualizer spacing 2
par Net1Test.visualizer.osgVisualizer.energyStorageVisualizer placementHint "\"right\""
par Net1Test.visualizer.osgVisualizer.energyStorageVisualizer placementPriority 0
par Net1Test.visualizer.osgVisualizer.mediumVisualizer typename "\"inet.visualizer.osg.physicallayer.MediumOsgVisualizer\""
par Net1Test.visualizer.osgVisualizer.mediumVisualizer visualizationTargetModule "\"^.^.^\""
par Net1Test.visualizer.osgVisualizer.mediumVisualizer visualizationSubjectModule "\"^.^.^\""
par Net1Test.visualizer.osgVisualizer.mediumVisualizer tags "\"\""
par Net1Test.visualizer.osgVisualizer.mediumVisualizer mediumModule "\"radioMedium\""
par Net1Test.visualizer.osgVisualizer.mediumVisualizer networkNodeVisualizerModule "\"^.networkNodeVisualizer\""
par Net1Test.visualizer.osgVisualizer.mediumVisualizer nodeFilter "\"*\""
attr mutable ""
par Net1Test.visualizer.osgVisualizer.mediumVisualizer interfaceFilter "\"*\""
attr mutable ""
par Net1Test.visualizer.osgVisualizer.mediumVisualizer packetFilter "(omnetpp::cValueHolder)holder: \"*\""
attr mutable ""
par Net1Test.visualizer.osgVisualizer.mediumVisualizer displaySignals false
par Net1Test.visualizer.osgVisualizer.mediumVisualizer signalColor "\"dark\""
attr enum light,dark
par Net1Test.visualizer.osgVisualizer.mediumVisualizer signalPropagationAnimationSpeed "nan "
attr mutable ""
par Net1Test.visualizer.osgVisualizer.mediumVisualizer signalPropagationAnimationTime 1s
attr unit s
par Net1Test.visualizer.osgVisualizer.mediumVisualizer signalPropagationAdditionalTime 0s
attr unit s
par Net1Test.visualizer.osgVisualizer.mediumVisualizer signalTransmissionAnimationSpeed "nan "
attr mutable ""
par Net1Test.visualizer.osgVisualizer.mediumVisualizer signalTransmissionAnimationTime 1s
attr unit s
par Net1Test.visualizer.osgVisualizer.mediumVisualizer signalAnimationSpeedChangeTimeMode "\"realTime\""
attr enum realTime,animationTime,simulationTime
par Net1Test.visualizer.osgVisualizer.mediumVisualizer signalAnimationSpeedChangeTime 1s
attr unit s
par Net1Test.visualizer.osgVisualizer.mediumVisualizer displaySignalDepartures false
par Net1Test.visualizer.osgVisualizer.mediumVisualizer signalDepartureImage "\"misc/signal_departure.png\""
par Net1Test.visualizer.osgVisualizer.mediumVisualizer signalDeparturePlacementHint "\"topCenter\""
par Net1Test.visualizer.osgVisualizer.mediumVisualizer signalDeparturePlacementPriority 1
par Net1Test.visualizer.osgVisualizer.mediumVisualizer displaySignalArrivals false
par Net1Test.visualizer.osgVisualizer.mediumVisualizer signalArrivalImage "\"misc/signal_arrival.png\""
par Net1Test.visualizer.osgVisualizer.mediumVisualizer signalArrivalPlacementHint "\"topCenter\""
par Net1Test.visualizer.osgVisualizer.mediumVisualizer signalArrivalPlacementPriority -1
par Net1Test.visualizer.osgVisualizer.mediumVisualizer displayCommunicationRanges false
par Net1Test.visualizer.osgVisualizer.mediumVisualizer communicationRangeLineColor "\"blue\""
par Net1Test.visualizer.osgVisualizer.mediumVisualizer communicationRangeLineStyle "\"solid\""
par Net1Test.visualizer.osgVisualizer.mediumVisualizer communicationRangeLineWidth 1
par Net1Test.visualizer.osgVisualizer.mediumVisualizer displayInterferenceRanges false
par Net1Test.visualizer.osgVisualizer.mediumVisualizer interferenceRangeLineColor "\"gray\""
par Net1Test.visualizer.osgVisualizer.mediumVisualizer interferenceRangeLineStyle "\"solid\""
par Net1Test.visualizer.osgVisualizer.mediumVisualizer interferenceRangeLineWidth 1
par Net1Test.visualizer.osgVisualizer.mediumVisualizer autoPowerAxis true
par Net1Test.visualizer.osgVisualizer.mediumVisualizer signalMinPower "inf dBmW"
attr unit dBmW
par Net1Test.visualizer.osgVisualizer.mediumVisualizer signalMaxPower 0dBmW
attr unit dBmW
par Net1Test.visualizer.osgVisualizer.mediumVisualizer signalMinPowerDensity "inf dBmWpMHz"
attr unit dBmWpMHz
par Net1Test.visualizer.osgVisualizer.mediumVisualizer signalMaxPowerDensity "-inf dBmWpMHz"
attr unit dBmWpMHz
par Net1Test.visualizer.osgVisualizer.mediumVisualizer autoTimeAxis true
par Net1Test.visualizer.osgVisualizer.mediumVisualizer signalMinTime 0s
attr unit s
par Net1Test.visualizer.osgVisualizer.mediumVisualizer signalMaxTime 0s
attr unit s
par Net1Test.visualizer.osgVisualizer.mediumVisualizer autoFrequencyAxis true
par Net1Test.visualizer.osgVisualizer.mediumVisualizer signalMinFrequency "inf Hz"
attr unit Hz
par Net1Test.visualizer.osgVisualizer.mediumVisualizer signalMaxFrequency "-inf Hz"
attr unit Hz
par Net1Test.visualizer.osgVisualizer.mediumVisualizer displayMainPowerDensityMap false
par Net1Test.visualizer.osgVisualizer.mediumVisualizer mainPowerDensityMapPixmapDensity 1
par Net1Test.visualizer.osgVisualizer.mediumVisualizer mainPowerDensityMapMinX 0
par Net1Test.visualizer.osgVisualizer.mediumVisualizer mainPowerDensityMapMaxX "nan "
par Net1Test.visualizer.osgVisualizer.mediumVisualizer mainPowerDensityMapMinY 0
par Net1Test.visualizer.osgVisualizer.mediumVisualizer mainPowerDensityMapMaxY "nan "
par Net1Test.visualizer.osgVisualizer.mediumVisualizer mainPowerDensityMapZ 0
par Net1Test.visualizer.osgVisualizer.mediumVisualizer mainPowerDensityMapFigureXTickCount 3
par Net1Test.visualizer.osgVisualizer.mediumVisualizer mainPowerDensityMapFigureYTickCount 3
par Net1Test.visualizer.osgVisualizer.mediumVisualizer displayPowerDensityMaps false
par Net1Test.visualizer.osgVisualizer.mediumVisualizer powerDensityMapMode "\"auto\""
attr enum total,signal,auto
par Net1Test.visualizer.osgVisualizer.mediumVisualizer powerDensityMapPixelMode "\"mean\""
attr enum sample,partition,mean
par Net1Test.visualizer.osgVisualizer.mediumVisualizer powerDensityMapApproximationSize 10
par Net1Test.visualizer.osgVisualizer.mediumVisualizer powerDensityMapCenterFrequency "nan Hz"
attr mutable ""
attr unit Hz
par Net1Test.visualizer.osgVisualizer.mediumVisualizer powerDensityMapBandwidth 0Hz
attr mutable ""
attr unit Hz
par Net1Test.visualizer.osgVisualizer.mediumVisualizer powerDensityMapFigureWidth 200
par Net1Test.visualizer.osgVisualizer.mediumVisualizer powerDensityMapFigureHeight 120
par Net1Test.visualizer.osgVisualizer.mediumVisualizer powerDensityMapPixmapWidth 200
par Net1Test.visualizer.osgVisualizer.mediumVisualizer powerDensityMapPixmapHeight 120
par Net1Test.visualizer.osgVisualizer.mediumVisualizer powerDensityMapZ 0
par Net1Test.visualizer.osgVisualizer.mediumVisualizer powerDensityMapFigureXTickCount 3
par Net1Test.visualizer.osgVisualizer.mediumVisualizer powerDensityMapFigureYTickCount 3
par Net1Test.visualizer.osgVisualizer.mediumVisualizer displaySpectrums false
par Net1Test.visualizer.osgVisualizer.mediumVisualizer spectrumMode "\"auto\""
attr enum total,signal,auto
par Net1Test.visualizer.osgVisualizer.mediumVisualizer spectrumFigureWidth 200
par Net1Test.visualizer.osgVisualizer.mediumVisualizer spectrumFigureHeight 120
par Net1Test.visualizer.osgVisualizer.mediumVisualizer spectrumFigureXTickCount 3
par Net1Test.visualizer.osgVisualizer.mediumVisualizer spectrumFigureYTickCount 5
par Net1Test.visualizer.osgVisualizer.mediumVisualizer spectrumFigureInterpolationSize 5
par Net1Test.visualizer.osgVisualizer.mediumVisualizer spectrumPlacementHint "\"bottomCenter\""
par Net1Test.visualizer.osgVisualizer.mediumVisualizer spectrumPlacementPriority -1
par Net1Test.visualizer.osgVisualizer.mediumVisualizer displaySpectrograms false
par Net1Test.visualizer.osgVisualizer.mediumVisualizer spectrogramMode "\"auto\""
attr enum total,signal,auto
par Net1Test.visualizer.osgVisualizer.mediumVisualizer spectrogramPixelMode "\"mean\""
attr enum sample,partition,mean
par Net1Test.visualizer.osgVisualizer.mediumVisualizer spectrogramFigureWidth 200
[...]
attr unit Hz
par Net1Test.U25.wlan[0].radio signalAnalogRepresentation "\"scalar\""
attr enum scalar,dimensional
par Net1Test.U25.wlan[0].radio opMode "\"g(mixed)\""
attr enum a,b,g(erp),g(mixed),n(mixed-2.4Ghz),p,ac
par Net1Test.U25.wlan[0].radio bandName "\"2.4 GHz\""
attr enum "2.4 GHz,5 GHz,5 GHz (20 MHz),5 GHz (40 MHz),5 GHz (80 MHz),5 GHz (160 MHz),5.9 GHz"
par Net1Test.U25.wlan[0].radio channelNumber 0
par Net1Test.U25.wlan[0].radio crcMode "\"declared\""
attr enum declared,computed
statistic Net1Test.U25.wlan[0].radio radioChannel:histogram
field count 1
field mean 0
field stddev -nan
field min 0
field max 0
field sum 0
field sqrsum 0
attr interpolationmode sample-hold
attr recordingmode histogram
attr source radioChannelChanged
attr title "Radio channel"
bin	-inf	0
bin	-0.5	0
bin	-0.48	0
bin	-0.46	0
bin	-0.44	0
bin	-0.42	0
bin	-0.4	0
bin	-0.38	0
bin	-0.36	0
bin	-0.34	0
bin	-0.32	0
bin	-0.3	0
bin	-0.28	0
bin	-0.26	0
bin	-0.24	0
bin	-0.22	0
bin	-0.2	0
bin	-0.18	0
bin	-0.16	0
bin	-0.14	0
bin	-0.12	0
bin	-0.1	0
bin	-0.08	0
bin	-0.06	0
bin	-0.04	0
bin	-0.02	0
bin	0	1
bin	0.02	0
bin	0.04	0
bin	0.06	0
bin	0.08	0
bin	0.1	0
bin	0.12	0
bin	0.14	0
bin	0.16	0
bin	0.18	0
bin	0.2	0
bin	0.22	0
bin	0.24	0
bin	0.26	0
bin	0.28	0
bin	0.3	0
bin	0.32	0
bin	0.34	0
bin	0.36	0
bin	0.38	0
bin	0.4	0
bin	0.42	0
bin	0.44	0
bin	0.46	0
bin	0.48	0
bin	0.5	0
scalar Net1Test.U25.wlan[0].radio radioMode:count 173
attr interpolationmode sample-hold
attr recordingmode count
attr source radioModeChanged
attr title "Radio mode, count"
scalar Net1Test.U25.wlan[0].radio receptionState:count 9677
attr interpolationmode sample-hold
attr recordingmode count
attr source receptionStateChanged
attr title "Radio reception state, count"
scalar Net1Test.U25.wlan[0].radio transmissionState:count 340
attr interpolationmode sample-hold
attr recordingmode count
attr source transmissionStateChanged
attr title "Radio transmission state, count"
statistic Net1Test.U25.wlan[0].radio minSnir:histogram
field count 4746
field mean 1300.9498946839
field stddev 594.13150929459
field min 0.23828079376461
field max 1746.392348585
field sum 6174308.20017
field sqrsum 9707413830.6048
attr recordingmode histogram
attr source minimumSnir(packetSentToUpper)
attr title "Min SNIR"
bin	-inf	0
bin	0	343
bin	50	0
bin	100	0
bin	150	0
bin	200	0
bin	250	0
bin	300	65
bin	350	0
bin	400	72
bin	450	539
bin	500	0
bin	550	0
bin	600	123
bin	650	196
bin	700	0
bin	750	0
bin	800	0
bin	850	0
bin	900	0
bin	950	0
bin	1000	0
bin	1050	0
bin	1100	0
bin	1150	0
bin	1200	0
bin	1250	0
bin	1300	0
bin	1350	0
bin	1400	0
bin	1450	0
bin	1500	1462
bin	1550	0
bin	1600	0
bin	1650	0
bin	1700	1946
bin	1750	0
bin	1800	0
bin	1850	0
bin	1900	0
bin	1950	0
bin	2000	0
bin	2050	0
bin	2100	0
bin	2150	0
bin	2200	0
statistic Net1Test.U25.wlan[0].radio packetErrorRate:histogram
field count 4746
field mean 0.05387192834906
field stddev 0.20828035752956
field min 0
field max 1
field sum 255.67617194464
field sqrsum 219.61522470896
attr recordingmode histogram
attr source packetErrorRate(packetSentToUpper)
attr title "Packet error rate"
bin	-inf	0
bin	0	4424
bin	0.02	0
bin	0.04	0
bin	0.06	0
bin	0.08	4
bin	0.1	0
bin	0.12	0
bin	0.14	0
bin	0.16	0
bin	0.18	0
bin	0.2	0
bin	0.22	0
bin	0.24	0
bin	0.26	0
bin	0.28	0
bin	0.3	0
bin	0.32	0
bin	0.34	0
bin	0.36	3
bin	0.38	0
bin	0.4	0
bin	0.42	0
bin	0.44	0
bin	0.46	0
bin	0.48	0
bin	0.5	0
bin	0.52	0
bin	0.54	0
bin	0.56	140
bin	0.58	0
bin	0.6	0
bin	0.62	0
bin	0.64	0
bin	0.66	0
bin	0.68	0
bin	0.7	0
bin	0.72	2
bin	0.74	0
bin	0.76	0
bin	0.78	0
bin	0.8	0
bin	0.82	0
bin	0.84	0
bin	0.86	0
bin	0.88	0
bin	0.9	0
bin	0.92	0
bin	0.94	0
bin	0.96	0
bin	0.98	27
bin	1	146
bin	1.02	0
bin	1.04	0
bin	1.06	0
bin	1.08	0
bin	1.1	0
bin	1.12	0
bin	1.14	0
bin	1.16	0
bin	1.18	0
bin	1.2	0
bin	1.22	0
bin	1.24	0
bin	1.26	0
statistic Net1Test.U25.wlan[0].radio bitErrorRate:histogram
field count 0
field mean -nan
field stddev -nan
field min -nan
field max -nan
field sum 0
field sqrsum 0
attr recordingmode histogram
attr source bitErrorRate(packetSentToUpper)
attr title "Bit error rate"
bin	-inf	0
bin	0	0
bin	1	0
statistic Net1Test.U25.wlan[0].radio symbolErrorRate:histogram
field count 0
field mean -nan
field stddev -nan
field min -nan
field max -nan
field sum 0
field sqrsum 0
attr recordingmode histogram
attr source symbolErrorRate(packetSentToUpper)
attr title "Symbol error rate"
bin	-inf	0
bin	0	0
bin	1	0
par Net1Test.U25.wlan[0] typename "\"inet.linklayer.ieee80211.Ieee80211Interface\""
par Net1Test.U25.wlan[0] displayStringTextFormat "\"%a (%i)\\n%m\""
par Net1Test.U25.wlan[0] recordPcap false
par Net1Test.U25.wlan[0] numPcapRecorders 0
par Net1Test.U25.wlan[0] interfaceTableModule "\"Net1Test.U25.interfaceTable\""
par Net1Test.U25.wlan[0] energySourceModule "\"\""
par Net1Test.U25.wlan[0] opMode "\"g(mixed)\""
attr enum a,b,g(erp),g(mixed),n(mixed-2.4Ghz),p,ac
par Net1Test.U25.wlan[0] address "\"0A-AA-00-00-00-1A\""
attr mutable ""
par Net1Test.U25.wlan[0] protocol "\"\""
par Net1Test.U25.wlan[0] bitrate 2.4e+07bps
attr unit bps
scalar Net1Test.U25.wlan[0] packetDropInterfaceDown:count 0
attr interpolationmode none
attr recordingmode count
attr source packetDropReasonIsInterfaceDown(packetDropped)
attr title "packet drops: interface down, count"
scalar Net1Test.U25.wlan[0] packetDropInterfaceDown:sum(packetBytes) 0
attr interpolationmode none
attr recordingmode sum(packetBytes)
attr source packetDropReasonIsInterfaceDown(packetDropped)
attr title "packet drops: interface down, sum(packetBytes)"
scalar Net1Test.U25.wlan[0] packetDropNoCarrier:count 0
attr interpolationmode none
attr recordingmode count
attr source packetDropReasonIsNoCarrier(packetDropped)
attr title "packet drops: no carrier, count"
scalar Net1Test.U25.wlan[0] packetDropNoCarrier:sum(packetBytes) 0
attr interpolationmode none
attr recordingmode sum(packetBytes)
attr source packetDropReasonIsNoCarrier(packetDropped)
attr title "packet drops: no carrier, sum(packetBytes)"
par Net1Test.U25.ipv4.transportIn.channel typename "\"ned.IdealChannel\""
par Net1Test.U25.ipv4.up.out[0].channel typename "\"ned.IdealChannel\""
par Net1Test.U25.ipv4.lp.out[2].channel typename "\"ned.IdealChannel\""
par Net1Test.U25.ipv4.ifIn.channel typename "\"ned.IdealChannel\""
par Net1Test.U25.ipv4.configurator typename "\"inet.networklayer.configurator.ipv4.Ipv4NodeConfigurator\""
par Net1Test.U25.ipv4.configurator interfaceTableModule "\"Net1Test.U25.interfaceTable\""
par Net1Test.U25.ipv4.configurator routingTableModule "\"Net1Test.U25.ipv4.routingTable\""
par Net1Test.U25.ipv4.configurator networkConfiguratorModule "\"configurator\""
par Net1Test.U25.ipv4.configurator configureRoutingTable true
par Net1Test.U25.ipv4.routingTable typename "\"inet.networklayer.ipv4.Ipv4RoutingTable\""
par Net1Test.U25.ipv4.routingTable interfaceTableModule "\"Net1Test.U25.interfaceTable\""
par Net1Test.U25.ipv4.routingTable routerId "\"auto\""
par Net1Test.U25.ipv4.routingTable netmaskRoutes "\"*\""
par Net1Test.U25.ipv4.routingTable forwarding true
par Net1Test.U25.ipv4.routingTable multicastForwarding false
par Net1Test.U25.ipv4.routingTable useAdminDist false
par Net1Test.U25.ipv4.routingTable routingFile "\"\""
par Net1Test.U25.ipv4.natTable typename "\"inet.networklayer.ipv4.Ipv4NatTable\""
par Net1Test.U25.ipv4.natTable networkProtocolModule "\"^.ip\""
par Net1Test.U25.ipv4.natTable config "<config/> at content:1"
par Net1Test.U25.ipv4.up typename "\"inet.common.MessageDispatcher\""
par Net1Test.U25.ipv4.up displayStringTextFormat "\"processed %p pk (%l)\""
par Net1Test.U25.ipv4.up forwardServiceRegistration true
par Net1Test.U25.ipv4.up forwardProtocolRegistration true
par Net1Test.U25.ipv4.igmp typename "\"inet.networklayer.ipv4.Igmpv2\""
par Net1Test.U25.ipv4.igmp interfaceTableModule "\"Net1Test.U25.interfaceTable\""
par Net1Test.U25.ipv4.igmp routingTableModule "\"Net1Test.U25.ipv4.routingTable\""
par Net1Test.U25.ipv4.igmp crcMode "\"declared\""
attr enum declared,computed
par Net1Test.U25.ipv4.igmp enabled true
par Net1Test.U25.ipv4.igmp robustnessVariable 2
par Net1Test.U25.ipv4.igmp queryInterval 125s
attr unit s
par Net1Test.U25.ipv4.igmp queryResponseInterval 10s
attr unit s
par Net1Test.U25.ipv4.igmp groupMembershipInterval 260s
attr unit s
par Net1Test.U25.ipv4.igmp otherQuerierPresentInterval 255s
attr unit s
par Net1Test.U25.ipv4.igmp startupQueryInterval 31.25s
attr unit s
par Net1Test.U25.ipv4.igmp startupQueryCount 2
par Net1Test.U25.ipv4.igmp lastMemberQueryInterval 1s
attr unit s
par Net1Test.U25.ipv4.igmp lastMemberQueryCount 2
par Net1Test.U25.ipv4.igmp unsolicitedReportInterval 10s
attr unit s
par Net1Test.U25.ipv4.icmp typename "\"inet.networklayer.ipv4.Icmp\""
par Net1Test.U25.ipv4.icmp interfaceTableModule "\"Net1Test.U25.interfaceTable\""
par Net1Test.U25.ipv4.icmp routingTableModule "\"Net1Test.U25.ipv4.routingTable\""
par Net1Test.U25.ipv4.icmp crcMode "\"declared\""
attr enum declared,computed
attr mutable ""
par Net1Test.U25.ipv4.icmp quoteLength 8B
attr mutable ""
attr unit B
par Net1Test.U25.ipv4.mp typename "\"inet.common.MessageDispatcher\""
par Net1Test.U25.ipv4.mp displayStringTextFormat "\"processed %p pk (%l)\""
par Net1Test.U25.ipv4.mp forwardServiceRegistration true
par Net1Test.U25.ipv4.mp forwardProtocolRegistration true
par Net1Test.U25.ipv4.ip typename "\"inet.networklayer.ipv4.Ipv4\""
par Net1Test.U25.ipv4.ip interfaceTableModule "\"Net1Test.U25.interfaceTable\""
par Net1Test.U25.ipv4.ip routingTableModule "\"Net1Test.U25.ipv4.routingTable\""
par Net1Test.U25.ipv4.ip arpModule "\"Net1Test.U25.ipv4.arp\""
par Net1Test.U25.ipv4.ip icmpModule "\"Net1Test.U25.ipv4.icmp\""
par Net1Test.U25.ipv4.ip crcMode "\"declared\""
attr enum declared,computed
par Net1Test.U25.ipv4.ip timeToLive 32
par Net1Test.U25.ipv4.ip multicastTimeToLive 32
par Net1Test.U25.ipv4.ip fragmentTimeout 60s
attr unit s
par Net1Test.U25.ipv4.ip limitedBroadcast false
par Net1Test.U25.ipv4.ip directBroadcastInterfaces "\"\""
scalar Net1Test.U25.ipv4.ip packetDropAddressResolutionFailed:count 0
attr interpolationmode none
attr recordingmode count
attr source packetDropReasonIsAddressResolutionFailed(packetDropped)
attr title "packet drop: address resolution failed, count"
scalar Net1Test.U25.ipv4.ip packetDropAddressResolutionFailed:sum(packetBytes) 0
attr interpolationmode none
attr recordingmode sum(packetBytes)
attr source packetDropReasonIsAddressResolutionFailed(packetDropped)
attr title "packet drop: address resolution failed, sum(packetBytes)"
scalar Net1Test.U25.ipv4.ip packetDropHopLimitReached:count 0
attr interpolationmode none
attr recordingmode count
attr source packetDropReasonIsHopLimitReached(packetDropped)
attr title "packet drop: hop limit reached, count"
scalar Net1Test.U25.ipv4.ip packetDropHopLimitReached:sum(packetBytes) 0
attr interpolationmode none
attr recordingmode sum(packetBytes)
attr source packetDropReasonIsHopLimitReached(packetDropped)
attr title "packet drop: hop limit reached, sum(packetBytes)"
scalar Net1Test.U25.ipv4.ip packetDropForwardingDisabled:count 0
attr interpolationmode none
attr recordingmode count
attr source packetDropReasonIsForwardingDisabled(packetDropped)
attr title "packet drop: forwarding disabled, count"
scalar Net1Test.U25.ipv4.ip packetDropForwardingDisabled:sum(packetBytes) 0
attr interpolationmode none
attr recordingmode sum(packetBytes)
attr source packetDropReasonIsForwardingDisabled(packetDropped)
attr title "packet drop: forwarding disabled, sum(packetBytes)"
scalar Net1Test.U25.ipv4.ip packetDropNoInterfaceFound:count 0
attr interpolationmode none
attr recordingmode count
attr source packetDropReasonIsNoInterfaceFound(packetDropped)
attr title "packet drop: no interface found, count"
scalar Net1Test.U25.ipv4.ip packetDropNoInterfaceFound:sum(packetBytes) 0
attr interpolationmode none
attr recordingmode sum(packetBytes)
attr source packetDropReasonIsNoInterfaceFound(packetDropped)
attr title "packet drop: no interface found, sum(packetBytes)"
scalar Net1Test.U25.ipv4.ip packetDropNoRouteFound:count 0
attr interpolationmode none
attr recordingmode count
attr source packetDropReasonIsNoRouteFound(packetDropped)
attr title "packet drop: no route found, count"
scalar Net1Test.U25.ipv4.ip packetDropNoRouteFound:sum(packetBytes) 0
attr interpolationmode none
attr recordingmode sum(packetBytes)
attr source packetDropReasonIsNoRouteFound(packetDropped)
attr title "packet drop: no route found, sum(packetBytes)"
scalar Net1Test.U25.ipv4.ip packetDropUndefined:count 0
attr interpolationmode none
attr recordingmode count
attr source packetDropReasonIsUndefined(packetDropped)
attr title "packet drop: undefined, count"
scalar Net1Test.U25.ipv4.ip packetDropUndefined:sum(packetBytes) 0
attr interpolationmode none
attr recordingmode sum(packetBytes)
attr source packetDropReasonIsUndefined(packetDropped)
attr title "packet drop: undefined, sum(packetBytes)"
par Net1Test.U25.ipv4.arp typename "\"inet.networklayer.arp.ipv4.Arp\""
par Net1Test.U25.ipv4.arp interfaceTableModule "\"Net1Test.U25.interfaceTable\""
par Net1Test.U25.ipv4.arp routingTableModule "\"Net1Test.U25.ipv4.routingTable\""
par Net1Test.U25.ipv4.arp retryTimeout 1s
attr unit s
par Net1Test.U25.ipv4.arp retryCount 3
par Net1Test.U25.ipv4.arp cacheTimeout 120s
attr unit s
par Net1Test.U25.ipv4.arp proxyArpInterfaces "\"\""
scalar Net1Test.U25.ipv4.arp arpResolutionFailed:count 0
attr recordingmode count
attr title "ARP failed resolutions, count"
scalar Net1Test.U25.ipv4.arp arpResolutionCompleted:count 10
attr recordingmode count
attr title "ARP completed resolutions, count"
scalar Net1Test.U25.ipv4.arp arpResolutionInitiated:count 1
attr recordingmode count
attr title "ARP initiated resolutions, count"
scalar Net1Test.U25.ipv4.arp arpReplySent:count 4
attr recordingmode count
attr source arpReplySent
attr title "ARP replies sent, count"
scalar Net1Test.U25.ipv4.arp arpReplySent:sum(packetBytes) 112
attr recordingmode sum(packetBytes)
attr source arpReplySent
attr title "ARP replies sent, sum(packetBytes)"
scalar Net1Test.U25.ipv4.arp arpRequestSent:count 1
attr recordingmode count
attr source arpRequestSent
attr title "ARP request sent, count"
scalar Net1Test.U25.ipv4.arp arpRequestSent:sum(packetBytes) 28
attr recordingmode sum(packetBytes)
attr source arpRequestSent
attr title "ARP request sent, sum(packetBytes)"
par Net1Test.U25.ipv4.lp typename "\"inet.common.MessageDispatcher\""
par Net1Test.U25.ipv4.lp displayStringTextFormat "\"processed %p pk (%l)\""
par Net1Test.U25.ipv4.lp forwardServiceRegistration true
par Net1Test.U25.ipv4.lp forwardProtocolRegistration true
par Net1Test.U25.ipv4 typename "\"inet.networklayer.ipv4.Ipv4NetworkLayer\""
par Net1Test.U25.ipv4 forwarding true
par Net1Test.U25.ipv4 multicastForwarding false
par Net1Test.U25.ipv4 interfaceTableModule "\"Net1Test.U25.interfaceTable\""
par Net1Test.U25.ipv4 displayStringTextFormat "\"%i\""
par Net1Test.U25.nl typename "\"inet.common.MessageDispatcher\""
par Net1Test.U25.nl displayStringTextFormat "\"processed %p pk (%l)\""
par Net1Test.U25.nl forwardServiceRegistration true
par Net1Test.U25.nl forwardProtocolRegistration true
par Net1Test.U25.udp typename "\"inet.transportlayer.udp.Udp\""
par Net1Test.U25.udp interfaceTableModule "\"Net1Test.U25.interfaceTable\""
par Net1Test.U25.udp icmpModule "\"^.ipv4.icmp\""
par Net1Test.U25.udp icmpv6Module "\"^.ipv6.icmpv6\""
par Net1Test.U25.udp crcMode "\"declared\""
attr enum disabled,declared,computed
par Net1Test.U25.udp defaultMulticastLoop true
scalar Net1Test.U25.udp packetReceived:count 0
attr interpolationmode none
attr recordingmode count
attr source packetReceived
attr title "packets received, count"
scalar Net1Test.U25.udp packetReceived:sum(packetBytes) 0
attr interpolationmode none
attr recordingmode sum(packetBytes)
attr source packetReceived
attr title "packets received, sum(packetBytes)"
scalar Net1Test.U25.udp packetSent:count 0
attr interpolationmode none
attr recordingmode count
attr source packetSent
attr title "packets sent, count"
scalar Net1Test.U25.udp packetSent:sum(packetBytes) 0
attr interpolationmode none
attr recordingmode sum(packetBytes)
attr source packetSent
attr title "packets sent, sum(packetBytes)"
scalar Net1Test.U25.udp passedUpPk:count 0
attr interpolationmode none
attr recordingmode count
attr source packetSentToUpper
attr title "packets passed up, count"
scalar Net1Test.U25.udp droppedPkWrongPort:count 0
attr interpolationmode none
attr recordingmode count
attr source packetDropReasonIsNoPortFound(packetDropped)
attr title "packets dropped (wrong port), count"
scalar Net1Test.U25.udp droppedPkBadChecksum:count 0
attr interpolationmode none
attr recordingmode count
attr source packetDropReasonIsIncorrectlyReceived(packetDropped)
attr title "packets dropped (checksum error), count"
par Net1Test.U25.tcp typename "\"inet.transportlayer.tcp.Tcp\""
par Net1Test.U25.tcp crcMode "\"declared\""
attr enum declared,computed
par Net1Test.U25.tcp advertisedWindow 7504
par Net1Test.U25.tcp delayedAcksEnabled false
par Net1Test.U25.tcp nagleEnabled true
par Net1Test.U25.tcp limitedTransmitEnabled false
par Net1Test.U25.tcp increasedIWEnabled false
par Net1Test.U25.tcp sackSupport false
par Net1Test.U25.tcp windowScalingSupport false
par Net1Test.U25.tcp windowScalingFactor -1
par Net1Test.U25.tcp timestampSupport false
par Net1Test.U25.tcp mss 536
par Net1Test.U25.tcp msl 120s
attr unit s
par Net1Test.U25.tcp tcpAlgorithmClass "\"TcpReno\""
attr enum TcpVegas,TcpWestwood,TcpNewReno,TcpReno,TcpTahoe,TcpNoCongestionControl
par Net1Test.U25.tcp useDataNotification false
par Net1Test.U25.tcp dupthresh 3
par Net1Test.U25.tcp initialSsthresh 4294967295
par Net1Test.U25.tcp stopOperationExtraTime 0s
attr unit s
par Net1Test.U25.tcp stopOperationTimeout 2s
attr unit s
par Net1Test.U25.tcp ecnWillingness false
par Net1Test.U25.tcp dctcpGamma 0.0625
par Net1Test.U25.tn typename "\"inet.common.MessageDispatcher\""
par Net1Test.U25.tn displayStringTextFormat "\"processed %p pk (%l)\""
par Net1Test.U25.tn forwardServiceRegistration true
par Net1Test.U25.tn forwardProtocolRegistration true
par Net1Test.U25.at typename "\"inet.common.MessageDispatcher\""
par Net1Test.U25.at displayStringTextFormat "\"processed %p pk (%l)\""
par Net1Test.U25.at forwardServiceRegistration true
par Net1Test.U25.at forwardProtocolRegistration true
par Net1Test.U25.routing typename "\"qlshortestpath.routing.qlhc.QlHC\""
par Net1Test.U25.routing interfaceTableModule "\"Net1Test.U25.interfaceTable\""
par Net1Test.U25.routing routingTableModule "\"^.ipv4.routingTable\""
par Net1Test.U25.routing networkProtocolModule "\"^.ipv4.ip\""
par Net1Test.U25.routing outputInterface "\"wlan0\""
par Net1Test.U25.routing planarizationMode "\"GG\""
attr enum ,GG,RNG
par Net1Test.U25.routing interfaces "\"*\""
par Net1Test.U25.routing beaconInterval 2s
attr unit s
par Net1Test.U25.routing maxJitter 1s
attr unit s
par Net1Test.U25.routing neighborValidityInterval 9s
attr unit s
par Net1Test.U25.routing positionByteLength 8B
attr unit B
par Net1Test.U25.routing displayBubbles false
par Net1Test.U25 typename "\"inet.node.inet.ManetRouter\""
par Net1Test.U25 hasStatus false
par Net1Test.U25 osgModel "\"\""
par Net1Test.U25 osgModelColor "\"\""
par Net1Test.U25 canvasImage "\"\""
par Net1Test.U25 canvasImageColor "\"\""
par Net1Test.U25 recordPcap false
par Net1Test.U25 numPcapRecorders 0
par Net1Test.U25 numLoInterfaces 1
par Net1Test.U25 numWlanInterfaces 1
par Net1Test.U25 numEthInterfaces 0
par Net1Test.U25 numPppInterfaces 0
par Net1Test.U25 numTunInterfaces 0
par Net1Test.U25 numVirtInterfaces 0
par Net1Test.U25 fcsMode "\"declared\""
attr enum declared,computed
par Net1Test.U25 hasIpv4 true
par Net1Test.U25 hasIpv6 false
par Net1Test.U25 hasGn false
par Net1Test.U25 forwarding true
par Net1Test.U25 multicastForwarding false
par Net1Test.U25 hasUdp true
par Net1Test.U25 hasTcp true
par Net1Test.U25 hasSctp false
par Net1Test.U25 numApps 0
par Net1Test typename "\"Net1Test\""

